&atmos_model_nml
       blocksize    = 32
       chksum_debug = .false.
       dycore_only  = .false.
       ccpp_suite = '@[CCPP_SUITE]'
/

&diag_manager_nml
       prepend_date = .false.
/

&fms_nml
       clock_grain = 'ROUTINE',
       domains_stack_size = 3000000,
       print_memory_usage = .false.
/

&fv_grid_nml
       grid_file = 'INPUT/grid_spec.nc'
/

&fms2_io_nml
  netcdf_default_format = "netcdf4"
/

&fv_core_nml
       layout      = @[INPES],@[JNPES]
       io_layout   = 1,1
       npx         = @[NPX]
       npy         = @[NPY]
       ntiles      = 6
       npz         = @[NPZ]
       grid_type   = -1
       make_nh     = @[MAKE_NH]
       fv_debug    = .false.
       range_warn  = .false.
       reset_eta   = .false.
       n_sponge    = 24
       nudge_qv    = .false.
       tau         = 5.
       rf_cutoff   = 7.5e2
       d2_bg_k1    = 0.15
       d2_bg_k2    = 0.02
       kord_tm     = -9
       kord_mt     =  9
       kord_wz     =  9
       kord_tr     =  9
       hydrostatic = .false.
       phys_hydrostatic   = .false.
       use_hydro_pressure = .false.
       beta      = 0.
       a_imp     = 1.
       p_fac     = 0.1
       k_split   = 2
       n_split   = 6
       nwat      = 6
       na_init   = @[NA_INIT]
       d_ext     = 0.0
       dnats     = 0
       fv_sg_adj = 450
       d2_bg     = 0.
       nord      =  2
       dddmp     = 0.1
       d4_bg     = 0.12
       vtdm4     = 0.02
       delt_max  = 0.002
       ke_bg     = 0.
       do_vort_damp = .true.
       external_ic  = @[EXTERNAL_IC]
       external_eta = .true.
       gfs_phil = .false.
       nggps_ic = @[NGGPS_IC]
       mountain = @[MOUNTAIN]
       ncep_ic  = .false.
       d_con    = 1.
       hord_mt  =  6
       hord_vt  =  6
       hord_tm  =  6
       hord_dp  =  6
       hord_tr  = 13
       adjust_dry_mass = .false.
       consv_te   = 1.
       consv_am   = .false.
       fill       = .true.
       dwind_2d   = .false.
       print_freq = 6
       warm_start = @[WARM_START]
       no_dycore  = .false.
       z_tracer   = .true.
       read_increment = @[READ_INCREMENT]
       res_latlon_dynamics = "fv3_increment.nc"
/

&external_ic_nml
       filtered_terrain = .true.
       levp       = @[NPZP]
       gfs_dwinds = .true.
       checker_tr = .false.
       nt_checker = 0
/

&gfs_physics_nml
       fhzero         = 6.
       ldiag3d        = .false.
       fhcyc          = 24.
       nst_anl        = .true.
       use_ufo        = .true.
       pre_rad        = .false.
       crtrh          = 1.00,1.00,0.95
       imp_physics    = 10
       pdfcld         = .false.
       fhswr          = 3600.
       fhlwr          = 3600.
       ialb           = 1
       iems           = 1
       IAER           = 111
       ico2           = 2
       isubc_sw       = 2
       isubc_lw       = 2
       isol           = 2
       lwhtr          = .true.
       swhtr          = .true.
       cnvgwd         = .true.
       shal_cnv       = .false..
       cal_pre        = .false.
       redrag         = .true.
       dspheat        = .false.
       hybedmf        = .false.
       satmedmf       = .false.
       lheatstrg      = @[LHEATSTRG]
       lseaspray      = @[LSEASPRAY]
       random_clds    = .true.
       trans_trac     = .true.
       cnvcld         = .false.
       imfshalcnv     = -1
       imfdeepcnv     = -1
       cdmbgwd        = 3.5,0.25
       prslrd0        = 0.
       ivegsrc        = 1
       isot           = 1
       lsm            = 1
       iopt_dveg      = 2
       iopt_crs       = 1
       iopt_btr       = 1
       iopt_run       = 1
       iopt_sfc       = 1
       iopt_frz       = 1
       iopt_inf       = 1
       iopt_rad       = 1
       iopt_alb       = 2
       iopt_snf       = 4
       iopt_tbot      = 2
       iopt_stc       = 1
       iopt_trs       = 2
       iopt_diag      = 2
       debug          = .false.

       ras            = .false.
       cscnv          = .true.
       do_shoc        = .true.
       shoc_parm      = 7000.0,1.0,2.0,0.7,-999.0
       do_aw          = .true.
       shoc_cld       = .true.
       h2o_phys       = .true.
       shcnvcw        = .false.
       xkzm_h         = 1.0
       xkzm_m         = 1.0
       xkzm_s         = 1.0
       ccwf           = 1.0,1.0
       dlqf           = 0.25,0.05
       mg_dcs         = 200.0
       mg_ts_auto_ice = 180.0,900.0
       mg_qcvar       = 1.0
       fprcp          = 2
       pdfflag        = 4
       iccn           = 0
       mg_do_graupel  = .true.
       mg_do_hail     = .false.
       do_sb_physics  = .true.
       mg_do_ice_gmao = .false.
       mg_do_liq_liu  = .true.
       cs_parm        = 8.0,4.0,1.0e3,3.5e3,20.0,1.0,0.0,1.0,0.6,0.0
       ctei_rm        = 0.60,0.23
       max_lon        = 8000
       max_lat        = 4000
       rhcmax         = 0.9999999
       effr_in        = .true.
       oz_phys        = .false.
       oz_phys_2015   = .true.

       nstf_name      = @[NSTF_NAME]
       iau_delthrs    = 6
       iaufhrs        = 30
       iau_inc_files  = @[IAU_INC_FILES]
/

&interpolator_nml
       interp_method = 'conserve_great_circle'
/

&namsfc
       FNGLAC   = "global_glacier.2x2.grb",
       FNMXIC   = "global_maxice.2x2.grb",
       FNTSFC   = "RTGSST.1982.2012.monthly.clim.grb",
       FNSNOC   = "global_snoclim.1.875.grb",
       FNZORC   = "igbp",
       FNALBC   = @[FNALBC]
       FNALBC2  = "global_albedo4.1x1.grb",
       FNAISC   = "CFSR.SEAICE.1982.2012.monthly.clim.grb",
       FNTG3C   = "global_tg3clim.2.6x1.5.grb",
       FNVEGC   = "global_vegfrac.0.144.decpercent.grb",
       FNVETC   = @[FNVETC]
       FNSOTC   = @[FNSOTC]
       FNSMCC   = @[FNSMCC]
       FNMSKH   = "global_slmask.t1534.3072.1536.grb",
       FNTSFA   = "",
       FNACNA   = "",
       FNSNOA   = "",
       FNVMNC   = "global_shdmin.0.144x0.144.grb",
       FNVMXC   = "global_shdmax.0.144x0.144.grb",
       FNSLPC   = "global_slope.1x1.grb",
       FNABSC   = @[FNABSC]
       LDEBUG   =.false.,
       FSMCL(2) = 99999
       FSMCL(3) = 99999
       FSMCL(4) = 99999
       FTSFS    = 90
       FAISS    = 99999
       FSNOL    = 99999
       FSICL    = 99999
       FTSFL    = 99999,
       FAISL    = 99999,
       FVETL    = 99999,
       FSOTL    = 99999,
       FvmnL    = 99999,
       FvmxL    = 99999,
       FSLPL    = 99999,
       FABSL    = 99999,
       FSNOS    = 99999,
       FSICS    = 99999,
/
&nam_stochy
  lon_s=768,
  lat_s=384,
  ntrunc=382,
  SKEBNORM=1,
  SKEB_NPASS=30,
  SKEB_VDOF=5,
  SKEB=@[SKEB],
  SKEB_TAU=2.16E4,
  SKEB_LSCALE=1000.E3,
  SHUM=@[SHUM],
  SHUM_TAU=21600,
  SHUM_LSCALE=500000,
  SPPT=@[SPPT],
  SPPT_TAU=21600,
  SPPT_LSCALE=500000,
  SPPT_LOGIT=.TRUE.,
  SPPT_SFCLIMIT=.TRUE.,
  ISEED_SHUM=1,
  ISEED_SKEB=2,
  ISEED_SPPT=3,
/
&nam_sfcperts
/

&cires_ugwp_nml
       knob_ugwp_solver  = 2
       knob_ugwp_source  = 1,1,0,0
       knob_ugwp_wvspec  = 1,25,25,25
       knob_ugwp_azdir   = 2,4,4,4
       knob_ugwp_stoch   = 0,0,0,0
       knob_ugwp_effac   = 1,1,1,1
       knob_ugwp_doaxyz  = 1
       knob_ugwp_doheat  = 1
       knob_ugwp_dokdis  = 1
       knob_ugwp_ndx4lh  = 1
       knob_ugwp_version = 0
       launch_level      = 25
/
