&atmos_model_nml
  blocksize = 10
  chksum_debug = .false.
  dycore_only = .false.
  fdiag = 1
  fhmax = 384
  fhout = 3
  fhmaxhf = 120
  fhouthf = 1
  ccpp_suite = '@[CCPP_SUITE]'
/

&diag_manager_nml
  prepend_date = .false.
/

&fms_io_nml
  checksum_required = .false.
  max_files_r = 100
  max_files_w = 100
/

&fms_nml
  clock_grain = 'ROUTINE'
  domains_stack_size = 3000000
  print_memory_usage = .false.
/

&fv_grid_nml
  grid_file = 'INPUT/grid_spec.nc'
/

&fv_core_nml
  layout = 20, 2
  io_layout = 1, 1
  npx = 201
  npy = 111
  ntiles = 1
  npz = 64
  make_nh = .true.
  fv_debug = .false.
  range_warn = .true.
  reset_eta = .false.
  n_sponge = 24
  nudge_qv = .false.
  rf_cutoff = 2000.0
  d2_bg_k1 = 0.2
  d2_bg_k2 = 0.04
  kord_tm = -9
  kord_mt = 9
  kord_wz = 9
  kord_tr = 9
  hydrostatic = .false.
  phys_hydrostatic = .false.
  use_hydro_pressure = .false.
  beta = 0.
  a_imp = 1.
  p_fac = 0.1
  k_split = 4
  n_split = 5
  nwat = @[NWAT]
  na_init = 1
  d_ext = 0.0
  dnats = 0
  fv_sg_adj = 300
  d2_bg = 0.
  nord = 2
  dddmp = 0.1
  d4_bg = 0.12
  vtdm4 = 0.02
  delt_max = 0.002
  ke_bg = 0.
  do_vort_damp = .true.
  external_ic = .true.
  external_eta = .true.
  gfs_phil = .false.
  nggps_ic = .true.
  mountain = .false.
  ncep_ic = .false.
  d_con = 1.
  hord_mt = 5
  hord_vt = 5
  hord_tm = 5
  hord_dp = -5
  hord_tr = 8
  adjust_dry_mass = .false.
  consv_te = 0.
  do_sat_adj = .false.
  consv_am = .false.
  fill = .true.
  dwind_2d = .false.
  print_freq = 6
  warm_start = .false.
  no_dycore = .false.
  z_tracer = .true.
  read_increment = .false.
  res_latlon_dynamics = 'fv3_increment.nc'
  regional = .true.
  do_schmidt = .true.
  regional_bcs_from_gsi = .false.
  stretch_fac = 0.999
  target_lat = 38.5
  target_lon = -97.5
  tau = 5.0
  write_restart_with_bcs = .false.
  nrows_blend = 10
  bc_update_interval = 6
  nord_zs_filter = 4
  n_zs_filter = 0
  full_zs_filter = .false.
/

&external_ic_nml
  filtered_terrain = .true.
  levp = 65
  gfs_dwinds = .true.
  checker_tr = .false.
  nt_checker = 0
/

&gfs_physics_nml
  fhzero         = 3.
  ldiag3d        = .false.
  fhcyc          = 0
  nst_anl        = .true.
  use_ufo        = .true.
  pre_rad        = .false.
  ncld           = 5
  imp_physics    = @[IMP_PHYSICS]
  spec_adv       = .true.        ! HWRF F-A
  RHGRD          = 0.98          ! HWRF F-A
  ltaerosol      = @[LTAEROSOL]  ! HWRF Thompson
  effr_in        = @[EFFR_IN]    ! HWRF Thompson
  icloud         = 3             ! HWRF RRTMG
  iovr           = 4             ! HWRF RRTMG
  hwrf_samfdeep  = .true.        ! HWRF SASdeep
  hwrf_samfshal  = .true.        ! HWRF SASshal
  asolfac_deep   = 0.89          ! HWRF SASdeep; GFS SAS:0.958
  asolfac_shal   = 0.89          ! HWRF SASdeep; GFS SAS:0.958
  hurr_pbl       = .T.           ! HWRF moninedmf
  moninq_fac     = -1.0          ! HWRF moninedmf
  lradar         = @[LRADAR]
  pdfcld         = .false.
  fhswr          = 1200.
  fhlwr          = 1200.
  ialb           = 1
  iems           = 1
  iaer           = 111
  ico2           = 2
  isubc_sw       = 2
  isubc_lw       = 2
  isol           = 2
  lwhtr          = .true.
  swhtr          = .true.
  cnvgwd         = .true. !true ->no gwdc
  shal_cnv       = .true.
  cal_pre        = .false.
  redrag         = .true.
  dspheat        = .true.
  hybedmf        = @[HYBEDMF]
  satmedmf       = @[SATMEDMF]
  lheatstrg      = @[LHEATSTRG]
  cnvcld         = .true.
  imfshalcnv     = 2
  imfdeepcnv     = 2
  cdmbgwd        = 3.5, 1.0
  prslrd0        = 0.
  ivegsrc        = 1
  isot           = 1
  lsm            = @[LSM]          !HWRF set to 4
  sfc_z0_type    = @[SFC_Z0_TYPE]  !HWRF set to 4
  iopt_dveg      = 2
  iopt_crs       = 1
  iopt_btr       = 1
  iopt_run       = 1
  iopt_sfc       = 1
  iopt_frz       = 1
  iopt_inf       = 1
  iopt_rad       = 1
  iopt_alb       = 2
  iopt_snf       = 4
  iopt_tbot      = 2
  iopt_stc       = 1
  debug          = .false.
  oz_phys        = .F.
  oz_phys_2015   = .T.
  h2o_phys       = .true.
  nstf_name      = 2, 1, 1, 0, 5
  cplflx         = .F.
  do_sppt        = @[DO_SPPT]
  do_shum        = @[DO_SHUM]
  do_skeb        = @[DO_SKEB]
  lndp_type      = @[LNDP_TYPE]
  n_var_lndp     = @[N_VAR_LNDP]
/

&interpolator_nml
  interp_method = 'conserve_great_circle'
/

&namsfc
  fabsl = 99999
  faisl = 99999
  faiss = 99999
  fnabsc = 'C401.maximum_snow_albedo.tile7.nc'
  fnacna = ''
  fnaisc = 'CFSR.SEAICE.1982.2012.monthly.clim.grb'
  fnalbc = 'C401.snowfree_albedo.tile7.nc'
  fnalbc2 = 'C401.facsf.tile7.nc'
  fnglac = 'global_glacier.2x2.grb'
  fnmskh = 'global_slmask.t1534.3072.1536.grb'
  fnmxic = 'global_maxice.2x2.grb'
  fnslpc = 'C401.slope_type.tile7.nc'
  fnsmcc = 'global_soilmgldas.t126.384.190.grb'
  fnsnoa = ''
  fnsnoc = 'global_snoclim.1.875.grb'
  fnsotc = 'C401.soil_type.tile7.nc'
  fntg3c = 'C401.substrate_temperature.tile7.nc'
  fntsfa = ''
  fntsfc = 'RTGSST.1982.2012.monthly.clim.grb'
  fnvegc = 'C401.vegetation_greenness.tile7.nc'
  fnvetc = 'C401.vegetation_type.tile7.nc'
  fnvmnc = 'C401.vegetation_greenness.tile7.nc'
  fnvmxc = 'C401.vegetation_greenness.tile7.nc'
  fnzorc = 'igbp'
  fsicl = 99999
  fsics = 99999
  fslpl = 99999
  fsmcl = 99999, 99999, 99999
  fsnol = 99999
  fsnos = 99999
  fsotl = 99999
  ftsfl = 99999
  ftsfs = 90
  fvetl = 99999
  fvmnl = 99999
  fvmxl = 99999
  ldebug = .true.
/

&nam_stochy
  ntrunc = 766
  lon_s = 1536
  lat_s = 768
  skeb = 0.3
  iseed_skeb = 2019102712451
  iseed_shum = 2019102712452
  iseed_sppt = 2019102712453
  skeb_tau = 21600.
  skeb_lscale = 500000.
  skebnorm = 0
  skeb_npass = 30
  skeb_vdof = 5
  shum = 0.005
  shum_tau = 21600.
  shum_lscale = 500000.
  sppt = 0.5
  sppt_tau = 21600.
  sppt_lscale = 500000.
  sppt_logit = .true.
  sppt_sfclimit = .true.
  use_zmtnblck = .true.
/

&nam_sfcperts
/

&surf_map_nml
    cd2 = -1
    cd4 = 0.12
    max_slope = 0.4
    n_del2_strong = 0
    n_del2_weak = 2
    n_del4 = 1
    peak_fac = 1.0
    zero_ocean = .false.
/

&cires_ugwp_nml
    knob_ugwp_solver = 2
    knob_ugwp_source = 1,1,0,0
    knob_ugwp_wvspec = 1,25,25,25
    knob_ugwp_azdir = 2,4,4,4
    knob_ugwp_stoch = 0,0,0,0
    knob_ugwp_effac = 1,1,1,1
    knob_ugwp_doaxyz = 1
    knob_ugwp_doheat = 1
    knob_ugwp_dokdis = 1
    knob_ugwp_ndx4lh = 1
    knob_ugwp_version = 0
    launch_level = 25
/

