&atmos_model_nml
  blocksize = @[BLOCKSIZE]
  chksum_debug = @[CHKSUM_DEBUG]
  dycore_only = @[DYCORE_ONLY]
  ccpp_suite = '@[CCPP_SUITE]'
/

&diag_manager_nml
  prepend_date = .false.
  max_output_fields = @[MAX_OUTPUT_FIELDS]
/

&fms_nml
  clock_grain = 'ROUTINE'
  domains_stack_size = @[DOMAINS_STACK_SIZE]
  print_memory_usage = .false.
/

&fms2_io_nml
  netcdf_default_format = 'netcdf4'
/

&fv_core_nml
  layout = @[INPES],@[JNPES]
  io_layout = @[IO_LAYOUT]
  npx = @[NPX]
  npy = @[NPY]
  ntiles = @[NTILES]
  npz = @[NPZ]
  dz_min = @[DZ_MIN]
  psm_bc = @[PSM_BC]
  grid_type = -1
  make_nh = @[MAKE_NH]
  fv_debug = .false.
  range_warn = .true.
  reset_eta = .false.
  n_sponge = @[N_SPONGE]
  nudge_qv = @[NUDGE_QV]
  nudge_dz = @[NUDGE_DZ]
  tau = @[TAU]
  fast_tau_w_sec = @[FAST_TAU_W_SEC]
  rf_cutoff = @[RF_CUTOFF]
  d2_bg_k1 = @[D2_BG_K1]
  d2_bg_k2 = @[D2_BG_K2]
  kord_tm = @[KORD_TM]
  kord_mt = @[KORD_MT]
  kord_wz = @[KORD_WZ]
  kord_tr = @[KORD_TR]
  hydrostatic = @[HYDROSTATIC]
  phys_hydrostatic = @[PHYS_HYDROSTATIC]
  use_hydro_pressure = @[USE_HYDRO_PRESSURE]
  pass_full_omega_to_physics_in_non_hydrostatic_mode = @[UPDATE_FULL_OMEGA]
  beta = 0.
  a_imp = 1.
  p_fac = 0.1
  k_split = @[K_SPLIT]
  n_split = @[N_SPLIT]
  nwat = @[NWAT]
  na_init = @[NA_INIT]
  d_ext = 0.
  dnats = @[DNATS]
  fv_sg_adj = @[FV_SG_ADJ]
  d2_bg = 0.
  nord = @[NORD]
  dddmp = @[DDDMP]
  d4_bg = @[D4_BG]
  vtdm4 = @[VTDM4]
  delt_max = @[DELT_MAX]
  ke_bg = 0.
  do_vort_damp = @[DO_VORT_DAMP]
  external_ic = @[EXTERNAL_IC]
  external_eta = @[EXTERNAL_ETA]
  gfs_phil = @[GFS_PHIL]
  nggps_ic = @[NGGPS_IC]
  mountain = @[MOUNTAIN]
  ncep_ic = @[NCEP_IC]
  d_con = @[D_CON]
  hord_mt = @[HORD_MT]
  hord_vt = @[HORD_VT]
  hord_tm = @[HORD_TM]
  hord_dp = @[HORD_DP]
  hord_tr = @[HORD_TR]
  adjust_dry_mass = @[ADJUST_DRY_MASS]
  dry_mass = @[DRY_MASS]
  consv_te = @[CONSV_TE]
  do_sat_adj = @[DO_SAT_ADJ]
  consv_am = .false.
  fill = .true.
  dwind_2d = .false.
  print_freq = @[PRINT_FREQ]
  warm_start = @[WARM_START]
  no_dycore = @[NO_DYCORE]
  z_tracer = .true.
  agrid_vel_rst = .true.
  read_increment = @[READ_INCREMENT]
  res_latlon_dynamics = @[RES_LATLON_DYNAMICS]
  increment_file_on_native_grid = @[INCREMENT_FILE_ON_NATIVE_GRID]
/

&external_ic_nml
  filtered_terrain = @[FILTERED_TERRAIN]
  levp = @[NPZP]
  gfs_dwinds = @[GFS_DWINDS]
  checker_tr = .false.
  nt_checker = 0
/

&gfs_physics_nml
  fhzero       = @[FHZERO]
  h2o_phys     = .true.
  ldiag3d      = @[LDIAG3D]
  qdiag3d      = @[QDIAG3D]
  print_diff_pgr = @[PRINT_DIFF_PGR]
  fhcyc        = @[FHCYC]
  use_ufo      = @[USE_UFO]
  pre_rad      = @[PRE_RAD]
  imp_physics  = @[IMP_PHYSICS]
  iovr         = @[IOVR]
  ltaerosol    = @[LTAEROSOL]
  lradar       = @[LRADAR]
  ttendlim     = @[TTENDLIM]
  dt_inner     = @[DT_INNER]
  sedi_semi    = @[SEDI_SEMI]
  decfl        = @[DECFL]
  oz_phys      = @[OZ_PHYS_NEW]
  oz_phys_2015 = @[OZ_PHYS_OLD]
  lsoil_lsm    = @[LSOIL_LSM]
  do_mynnedmf  = @[DO_MYNNEDMF]
  do_mynnsfclay = @[DO_MYNNSFCLAY]
  icloud_bl    = @[ICLOUD_BL]
  bl_mynn_edmf = @[BL_MYNN_EDMF]
  bl_mynn_tkeadvect = @[BL_MYNN_TKEADVECT]
  bl_mynn_edmf_mom = @[BL_MYNN_EDMF_MOM]
  do_ugwp      = @[DO_UGWP]
  do_tofd      = @[DO_TOFD]
  gwd_opt      = @[GWD_OPT]
  do_ugwp_v0   = @[DO_UGWP_V0]
  do_ugwp_v1   = @[DO_UGWP_V1]
  do_ugwp_v0_orog_only = @[DO_UGWP_V0_OROG_ONLY]
  do_ugwp_v0_nst_only  = @[DO_UGWP_V0_NST_ONLY]
  do_gsl_drag_ls_bl    = @[DO_GSL_DRAG_LS_BL]
  do_gsl_drag_ss       = @[DO_GSL_DRAG_SS]
  do_gwd_opt_psl       = @[DO_GWD_OPT_PSL]
  psl_gwd_dx_factor    = @[PSL_GWD_DX_FACTOR]
  do_gsl_drag_tofd     = @[DO_GSL_DRAG_TOFD]
  do_ugwp_v1_orog_only = @[DO_UGWP_V1_OROG_ONLY]
  min_lakeice  = @[MIN_LAKEICE]
  min_seaice   = @[MIN_SEAICE]
  use_cice_alb = @[USE_CICE_ALB]
  pdfcld       = @[PDFCLD]
  fhswr        = @[FHSWR]
  fhlwr        = @[FHLWR]
  ialb         = @[IALB]
  iems         = @[IEMS]
  iaer         = @[IAER]
  icliq_sw     = @[ICLIQ_SW]
  ico2         = @[ICO2]
  isubc_sw     = @[ISUBC_SW]
  isubc_lw     = @[ISUBC_LW]
  isol         = @[ISOL]
  lwhtr        = @[LWHTR]
  swhtr        = @[SWHTR]
  cnvgwd       = @[CNVGWD]
  shal_cnv     = @[SHAL_CNV]
  cal_pre      = @[CAL_PRE]
  redrag       = @[REDRAG]
  dspheat      = @[DSPHEAT]
  hybedmf      = @[HYBEDMF]
  satmedmf     = @[SATMEDMF]
  isatmedmf    = @[ISATMEDMF]
  lheatstrg    = @[LHEATSTRG]
  lseaspray    = @[LSEASPRAY]
  random_clds  = @[RANDOM_CLDS]
  trans_trac   = @[TRANS_TRAC]
  cnvcld       = @[CNVCLD]
  imfshalcnv   = @[IMFSHALCNV]
  imfdeepcnv   = @[IMFDEEPCNV]
  progsigma    = @[PROGSIGMA]
  betascu      = @[BETASCU]
  betamcu      = @[BETAMCU]
  betadcu      = @[BETADCU]
  ras          = @[RAS]
  cdmbgwd      = @[CDMBWD]
  prslrd0      = @[PRSLRD0]
  ivegsrc      = @[IVEGSRC]
  isot         = @[ISOT]
  lsoil        = @[LSOIL]
  lsm          = @[LSM]
  iopt_dveg    = @[IOPT_DVEG]
  iopt_crs     = @[IOPT_CRS]
  iopt_btr     = @[IOPT_BTR]
  iopt_run     = @[IOPT_RUN]
  iopt_sfc     = @[IOPT_SFC]
  iopt_trs     = @[IOPT_TRS]
  iopt_diag    = @[IOPT_DIAG]
  iopt_frz     = @[IOPT_FRZ]
  iopt_inf     = @[IOPT_INF]
  iopt_rad     = @[IOPT_RAD]
  iopt_alb     = @[IOPT_ALB]
  iopt_snf     = @[IOPT_SNF]
  iopt_tbot    = @[IOPT_TBOT]
  iopt_stc     = @[IOPT_STC]
  debug        = @[DEBUG]
  nstf_name    = @[NSTF_NAME]
  nst_anl      = @[NST_ANL]
  psautco      = @[PSAUTCO]
  prautco      = @[PRAUTCO]
  lgfdlmprad   = @[LGFDLMPRAD]
  effr_in      = @[EFFR_IN]
  ldiag_ugwp   = @[LDIAG_UGWP]
  fscav_aero   = @[FSCAV_AERO]
  do_RRTMGP          = @[DO_RRTMGP]
  active_gases       = @[ACTIVE_GASES]
  ngases             = @[NGASES]
  lw_file_gas        = @[LW_FILE_GAS]
  lw_file_clouds     = @[LW_FILE_CLOUDS]
  sw_file_gas        = @[SW_FILE_GAS]
  sw_file_clouds     = @[SW_FILE_CLOUDS]
  rrtmgp_nGptsSW     = @[RRTMGP_NGPTSSW]
  rrtmgp_nGptsLW     = @[RRTMGP_NGPTSLW]
  rrtmgp_nBandsLW    = @[RRTMGP_NBANDSLW]
  rrtmgp_nBandsSW    = @[RRTMGP_NBANDSSW]
  doGP_cldoptics_LUT = @[DOGP_CLDOPTICS_LUT]
  doGP_lwscat        = @[DOGP_LWSCAT]
  doGP_sgs_cnv       = @[DOGP_SGS_CNV]
  do_sppt      = @[DO_SPPT]
  do_shum      = @[DO_SHUM]
  do_skeb      = @[DO_SKEB]
  iaufhrs      = @[IAUFHRS]
  iau_delthrs  = @[IAU_DELTHRS]
  iau_inc_files= @[IAU_INC_FILES]
  iau_drymassfixer = .false.
  use_med_flux = @[USE_MED_FLUX]
  frac_grid    = @[FRAC_GRID]
  cplchm       = @[CPLCHM]
  cplflx       = @[CPLFLX]
  cplice       = @[CPLICE]
  cplwav       = @[CPLWAV]
  cplwav2atm   = @[CPLWAV2ATM]
  cpllnd       = @[CPLLND]
  cpllnd2atm   = @[CPLLND2ATM]
  do_ca        = @[DO_CA]
  ca_global    = @[CA_GLOBAL]
  ca_sgs       = @[CA_SGS]
  nca          = @[NCA]
  ncells       = @[NCELLS]
  nlives       = @[NLIVES]
  nseed        = @[NSEED]
  nfracseed    = @[NFRACSEED]
  nthresh      = @[NTHRESH]
  ca_trigger   = @[CA_TRIGGER]
  nspinup      = @[NSPINUP]
  iseed_ca     = @[ISEED_CA]
@[HIDE_LAND_PERT] lndp_type   = @[LNDP_TYPE]
@[HIDE_LAND_PERT] n_var_lndp  = @[N_VAR_LNDP]
@[HIDE_NEST] lcnorm  = @[LCNORM]
@[HIDE_SPPT] pert_mp = @[PERT_MP]
@[HIDE_SPPT] pert_radtend = @[PERT_RADTEND]
@[HIDE_SPPT] pert_clds = @[PERT_CLDS]
@[HIDE_IAU] iau_inc_files= @[IAU_INC_FILES]
@[HIDE_IAU] iau_drymassfixer = .false.
@[HIDE_IAU] iau_filter_increments = @[IAU_FILTER_INCREMENTS]
/

&cires_ugwp_nml
  knob_ugwp_solver   = @[KNOB_UGWP_SOLVER]
  knob_ugwp_source   = @[KNOB_UGWP_SOURCE]
  knob_ugwp_wvspec   = @[KNOB_UGWP_WVSPEC]
  knob_ugwp_azdir    = @[KNOB_UGWP_AZDIR]
  knob_ugwp_stoch    = @[KNOB_UGWP_STOCH]
  knob_ugwp_effac    = @[KNOB_UGWP_EFFAC]
  knob_ugwp_doaxyz   = @[KNOB_UGWP_DOAXYZ]
  knob_ugwp_doheat   = @[KNOB_UGWP_DOHEAT]
  knob_ugwp_dokdis   = @[KNOB_UGWP_DOKDIS]
  knob_ugwp_ndx4lh   = @[KNOB_UGWP_NDX4LH]
  knob_ugwp_version  = @[KNOB_UGWP_VERSION]
  ! This is only for UGWP v0
@[HIDE_UGWPV0] launch_level      = @[LAUNCH_LEVEL]
  ! These are only for UGWP v1
@[HIDE_UGWPV1] knob_ugwp_palaunch = @[KNOB_UGWP_PALAUNCH]
@[HIDE_UGWPV1] knob_ugwp_nslope   = @[KNOB_UGWP_NSLOPE]
@[HIDE_UGWPV1] knob_ugwp_lzmax    = @[KNOB_UGWP_LZMAX]
@[HIDE_UGWPV1] knob_ugwp_lzmin    = @[KNOB_UGWP_LZMIN]
@[HIDE_UGWPV1] knob_ugwp_lzstar   = @[KNOB_UGWP_LZSTAR]
@[HIDE_UGWPV1] knob_ugwp_taumin   = @[KNOB_UGWP_TAUMIN]
@[HIDE_UGWPV1] knob_ugwp_tauamp   = @[KNOB_UGWP_TAUAMP]
@[HIDE_UGWPV1] knob_ugwp_lhmet    = @[KNOB_UGWP_LHMET]
@[HIDE_UGWPV1] knob_ugwp_orosolv  = @[KNOB_UGWP_OROSOLV]
/

&gfdl_cloud_microphysics_nml
  sedi_transport = .true.
  do_sedi_heat = .false.
  rad_snow = .true.
  rad_graupel = .true.
  rad_rain = .true.
  const_vi = .false.
  const_vs = .false.
  const_vg = .false.
  const_vr = .false.
  vi_max = 1.
  vs_max = 2.
  vg_max = 12.
  vr_max = 12.
  qi_lim = 1.
  prog_ccn = .false.
  do_qa = .true.
  fast_sat_adj = .true.
  tau_l2v = 225.
  tau_v2l = 150.
  tau_g2v = 900.
  rthresh = 10.e-6   ! This is a key parameter for cloud water
  dw_land  = 0.16
  dw_ocean = 0.10
  ql_gen = 1.0e-3
  ql_mlt = 1.0e-3
  qi0_crt = 8.0e-5
  qs0_crt = 1.0e-3
  tau_i2s = 1000.
  c_psaci = 0.05
  c_pgacs = 0.01
  rh_inc = 0.30
  rh_inr = 0.30
  rh_ins = 0.30
  ccn_l = 300.
  ccn_o = 100.
  c_paut = 0.5
  c_cracw = 0.8
  use_ppm = .false.
  use_ccn = .true.
  mono_prof = .true.
  z_slope_liq  = .true.
  z_slope_ice  = .true.
  de_ice = .false.
  fix_negative = .true.
  icloud_f = 1
  mp_time = 150.
  reiflag = @[REIFLAG]
/

&interpolator_nml
  interp_method = 'conserve_great_circle'
/

&namsfc
  FNGLAC   = @[FNGLAC]
  FNMXIC   = @[FNMXIC]
  FNTSFC   = @[FNTSFC]
  FNSNOC   = @[FNSNOC]
  FNZORC   = @[FNZORC]
  FNALBC   = @[FNALBC]
  FNALBC2  = @[FNALBC2]
  FNAISC   = @[FNAISC]
  FNTG3C   = @[FNTG3C]
  FNVEGC   = @[FNVEGC]
  FNVETC   = @[FNVETC]
  FNSOTC   = @[FNSOTC]
  FNSOCC   = @[FNSOCC]
  FNSMCC   = @[FNSMCC]
  FNMSKH   = @[FNMSKH]
  FNTSFA   = ''
  FNACNA   = ''
  FNSNOA   = ''
  FNVMNC   = @[FNVMNC]
  FNVMXC   = @[FNVMXC]
  FNSLPC   = @[FNSLPC]
  FNABSC   = @[FNABSC]
  LDEBUG   = @[LDEBUG]
  FSMCL(2) = 99999
  FSMCL(3) = 99999
  FSMCL(4) = 99999
  LANDICE  = @[LANDICE]
  FTSFS    = @[FTSFS]
  FAISL    = 99999
  FAISS    = 99999
  FSNOL    = 99999
  FSNOS    = 99999
  FSICL    = @[FSICL]
  FSICS    = @[FSICS]
  FTSFL    = 99999
  FVETL    = 99999
  FSOTL    = 99999
  FvmnL    = 99999
  FvmxL    = 99999
  FSLPL    = 99999
  FABSL    = 99999
/

&fv_grid_nml
  grid_file = 'INPUT/grid_spec.nc'
/

&nam_stochy
@[HIDE_SKEB] skeb = @[SKEB]
@[HIDE_SKEB] iseed_skeb = @[ISEED_SKEB]
@[HIDE_SKEB] skeb_tau = @[SKEB_TAU]
@[HIDE_SKEB] skeb_lscale = @[SKEB_LSCALE]
@[HIDE_SKEB] skebnorm = @[SKEBNORM]
@[HIDE_SKEB] skeb_npass = @[SKEB_NPASS]
@[HIDE_SKEB] skeb_vdof = @[SKEB_VDOF]
@[HIDE_SHUM] shum = @[SHUM]
@[HIDE_SHUM] iseed_shum = @[ISEED_SHUM]
@[HIDE_SHUM] shum_tau = @[SHUM_TAU]
@[HIDE_SHUM] shum_lscale = @[SHUM_LSCALE]
@[HIDE_SPPT] sppt = @[SPPT]
@[HIDE_SPPT] iseed_sppt = @[ISEED_SPPT]
@[HIDE_SPPT] sppt_tau = @[SPPT_TAU]
@[HIDE_SPPT] sppt_lscale = @[SPPT_LSCALE]
@[HIDE_SPPT] sppt_logit = @[SPPT_LOGIT]
@[HIDE_SPPT] sppt_sfclimit = @[SPPT_SFCLIMIT]
@[HIDE_SPPT] use_zmtnblck = @[USE_ZMTNBLCK]
@[HIDE_SPPT] pbl_taper = @[PBL_TAPER]
@[HIDE_OCNSPPT] OCNSPPT = @[OCNSPPT]
@[HIDE_OCNSPPT] OCNSPPT_LSCALE = @[OCNSPPT_LSCALE]
@[HIDE_OCNSPPT] OCNSPPT_TAU = @[OCNSPPT_TAU] 
@[HIDE_OCNSPPT] ISEED_OCNSPPT =@[ISEED_OCNSPPT]
@[HIDE_EPBL] EPBL = @[EPBL]
@[HIDE_EPBL] EPBL_LSCALE = @[EPBL_LSCALE]
@[HIDE_EPBL] EPBL_TAU = @[EPBL_TAU]
@[HIDE_EPBL] ISEED_EPBL = @[ISEED_EPBL]
/

&nam_sfcperts
@[HIDE_LAND_PERT] lndp_type = @[LNDP_TYPE]
@[HIDE_LAND_PERT] lndp_model_type = @[LNDP_MODEL_TYPE]
@[HIDE_LAND_PERT] LNDP_TAU=@[LNDP_TAU]
@[HIDE_LAND_PERT] LNDP_LSCALE=@[LNDP_LSCALE]
@[HIDE_LAND_PERT] ISEED_LNDP=@[ISEED_LNDP]
@[HIDE_LAND_PERT] lndp_var_list = @[LNDP_VAR_LIST]
@[HIDE_LAND_PERT] lndp_prt_list = @[LNDP_PRT_LIST]
/

&MOM_input_nml
  output_directory = '@[MOM6_OUTPUT_DIR]',
  input_filename = '@[MOM6_RESTART_SETTING]'
  restart_input_dir = 'INPUT/',
  restart_output_dir = '@[MOM6_RESTART_DIR]'
  parameter_filename = 'INPUT/MOM_input','INPUT/MOM_override'/
