 &atmos_model_nml
       blocksize = @[BLOCKSIZE]
       chksum_debug = .false.
       dycore_only = .false.
       avg_max_length = 3600.
       ccpp_suite = '@[CCPP_SUITE]'
/

 &diag_manager_nml
       prepend_date = .false.
/

 &fms_nml
       clock_grain = 'ROUTINE',
       domains_stack_size = 30000000,
       print_memory_usage = .false.
/

 &fv_grid_nml
       !grid_file = 'INPUT/grid_spec.nc'
/

&fms2_io_nml
  netcdf_default_format = "netcdf4"
/

 &fv_core_nml
       layout = @[INPES_NEST],@[JNPES_NEST]
       io_layout = 1,1
       npx = @[NPX_NEST]
       npy = @[NPY_NEST]
       ntiles   = 1
       npz    = @[NPZ]
       !grid_type = -1
       make_nh = .false.
       fv_debug = .false.
       range_warn = .true.
       reset_eta = .false.
       n_sponge = 24
       nudge_qv = .false.
       nudge_dz = .false.
       tau = @[FV_CORE_TAU]
       rf_cutoff = @[RF_CUTOFF_NEST]
       fast_tau_w_sec = @[FAST_TAU_W_SEC]
       d2_bg_k1 = 0.20
       d2_bg_k2 = 0.15
       kord_tm = -11
       kord_mt =  11
       kord_wz =  11
       kord_tr =  11
       hydrostatic = .false.
       phys_hydrostatic = .false.
       use_hydro_pressure = .false.
       beta = 0.
       a_imp = 1.
       p_fac = 0.1
       k_split = @[K_SPLIT_NEST]
       n_split = @[N_SPLIT_NEST]
       nwat = @[NWAT]
       na_init = @[NA_INIT]
       d_ext = 0.0
       dnats = @[DNATS]
       fv_sg_adj = 300
       d2_bg = 0.
       nord =  2
       dddmp = 0.1
       d4_bg = 0.15
       vtdm4 = 0.04
       delt_max = 0.008
       ke_bg = 0.
       do_vort_damp = .true.
       external_ic = @[EXTERNAL_IC]
       external_eta = .true.
       gfs_phil = .false.
       nggps_ic = @[NGGPS_IC]
       mountain = @[MOUNTAIN]
       ncep_ic = .false.
       d_con = 1.0
       hord_mt = 6
       hord_vt = 6
       hord_tm = 6
       hord_dp = -6
       hord_tr = 8
       adjust_dry_mass = .false.
       consv_te = 0.
       do_sat_adj = @[DO_SAT_ADJ]
       consv_am = .false.
       fill = .true.
       dwind_2d = .false.
       print_freq = 3
       warm_start = @[WARM_START]
       no_dycore = .false.
       z_tracer = .true.
       agrid_vel_rst = .true.
       read_increment = .false.
       res_latlon_dynamics = "fv3_increment.nc"
       write_3d_diags = .true.

       nested = .true.
       twowaynest = .true.
       nestupdate = 7

       full_zs_filter = @[FULL_ZS_FILTER]
       n_zs_filter = @[N_ZS_FILTER]
       nord_zs_filter = 4
/

 &surf_map_nml
       zero_ocean = .false.
       cd4 = 0.15
       cd2 = -1
       n_del2_strong = 0
       n_del2_weak = 15
       n_del4 = 2
       max_slope = 0.4
       peak_fac = 1.
/

 &external_ic_nml
       filtered_terrain = .true.
       levp = @[NPZP]
       gfs_dwinds = .true.
       checker_tr = .false.
       nt_checker = 0
/

 &gfs_physics_nml
       fhzero         = 3.
       ldiag3d        = .false.
       avg_max_length = 3600.
       h2o_phys       = .true.
       fhcyc          = @[FHCYC]
       use_ufo        = .true.
       pre_rad        = .false.
       imp_physics    = @[IMP_PHYSICS]
       iovr           = @[IOVR]
       ltaerosol      = @[LTAEROSOL]
       lradar         = @[LRADAR]
       ttendlim       = -999
       dt_inner       = @[DT_INNER]
       sedi_semi      = @[SEDI_SEMI]
       decfl          = @[DECFL]
       ext_diag_thompson = .false.
       pdfcld         = .false.
       fhswr          = @[FHSWR]
       fhlwr          = @[FHLWR]
       progsigma      = @[PROGSIGMA]
       betascu        = @[BETASCU]
       betamcu        = @[BETAMCU]
       betadcu        = @[BETADCU]
       ialb           = 1
       iems           = 1
       iaer           = @[IAER]
       ico2           = 2
       isubc_sw       = 2
       isubc_lw       = 2
       isol           = 2
       lwhtr          = .true.
       swhtr          = .true.
       cnvgwd         = @[CNVGWD]
       shal_cnv       = .true. !Shallow convection
       cal_pre        = .false.
       redrag         = .true.
       dspheat        = .true.
       hybedmf        = @[HYBEDMF]
       hurr_pbl       = @[HURR_PBL]     ! HWRF moninedmf
       moninq_fac     = @[MONINQ_FAC]       ! HWRF_moninedmf
       satmedmf       = @[SATMEDMF]
       isatmedmf      = @[ISATMEDMF]
       rlmx           = 300.
       elmx           = 300.
       sfc_rlm        = 1
       random_clds    = .false.
       trans_trac     = .true.
       cnvcld         = .true.
       imfshalcnv     = @[IMFSHALCNV]
       imfdeepcnv     = @[IMFDEEPCNV]
       cdmbgwd        = @[CDMBWD]
       sfc_z0_type    = 6
       prslrd0        = 0.
       ivegsrc        = 1
       isot           = 1
       lsm            = @[LSM]
       iopt_dveg      = @[IOPT_DVEG]
       iopt_crs       = @[IOPT_CRS]
       iopt_btr       = 1
       iopt_run       = 1
       iopt_sfc       = @[IOPT_SFC]
       iopt_frz       = 1
       iopt_inf       = 1
       iopt_rad       = @[IOPT_RAD]
       iopt_alb       = @[IOPT_ALB]
       iopt_snf       = 4
       iopt_tbot      = 2
       iopt_stc       = @[IOPT_STC] ! 1
       iopt_trs       = 2
       iopt_diag      = 2
       debug          = .false.
       oz_phys        = .false.
       oz_phys_2015   = .true.
       nst_anl        = .true.
       nstf_name      = @[NSTF_NAME]
       cplflx         = @[CPLFLX]
       cplice         = .false.
       cplocn2atm     = @[CPLOCN2ATM]
       cplwav         = @[CPLWAV]
       cplwav2atm     = @[CPLWAV2ATM]
       cpl_imp_mrg    = @[CPL_IMP_MRG]
       psautco        = 0.0008, 0.0005
       prautco        = 0.00015, 0.00015
       iau_delthrs    = 6
       iaufhrs        = 30
       iau_inc_files  = ''
       iau_drymassfixer = .false.
       do_deep        = .true.
       lgfdlmprad     = .true.
       effr_in        = .true.
       do_sppt        = .false.
       do_shum        = .false.
       do_skeb        = .false.
       lndp_type      = 0
       n_var_lndp     = 0
       gwd_opt        = 2
       do_ugwp_v0     = @[DO_UGWP_V0]
       do_ugwp_v1     = @[DO_UGWP_V1]
       do_ugwp_v1_w_gsldrag = @[DO_UGWP_V1_W_GSLDRAG]
       do_ugwp_v1_orog_only = @[DO_UGWP_V1_OROG_ONLY]
       do_gsl_drag_ls_bl    = @[DO_GSL_DRAG_LS_BL]
       do_gsl_drag_ss       = @[DO_GSL_DRAG_SS]
       do_gsl_drag_tofd     = @[DO_GSL_DRAG_TOFD]
       do_ugwp_v0_orog_only = @[DO_UGWP_V0_OROG_ONLY]

       do_mynnedmf    = @[DO_MYNNEDMF]
       lheatstrg      = @[LHEATSTRG]
       lseaspray      = @[LSEASPRAY]
       do_mynnsfclay  = @[DO_MYNNSFCLAY]
       bl_mynn_tkeadvect = @[BL_MYNN_TKEADVECT]
/

 &gfdl_cloud_microphysics_nml
       sedi_transport = .false.
       do_sedi_heat = .false.
       rad_snow = .true.
       rad_graupel = .true.
       rad_rain = .true.
       const_vi = .false.
       const_vs = .false.
       const_vg = .false.
       const_vr = .false.
       vi_max = 1.
       vs_max = 2.
       vg_max = 12.
       vr_max = 12.
       qi_lim = 1.
       prog_ccn = .false.
       do_qa = .true.
       fast_sat_adj = .true.
       tau_l2v = 180.
       tau_v2l = 90.
       tau_g2v = 900.
       rthresh = 10.e-6  ! This is a key parameter for cloud water
       dw_land  = 0.16
       dw_ocean = 0.10
       ql_gen = 1.0e-3
       ql_mlt = 1.0e-3
       qi0_crt = 8.0E-5
       qs0_crt = 1.0e-3
       tau_i2s = 1000.
       c_psaci = 0.05
       c_pgacs = 0.01
       rh_inc = 0.30
       rh_inr = 0.30
       rh_ins = 0.30
       ccn_l = 300.
       ccn_o = 100.
       c_paut = 0.5
       c_cracw = 0.8
       use_ppm = .false.
       use_ccn = .true.
       mono_prof = .true.
       z_slope_liq  = .true.
       z_slope_ice  = .true.
       de_ice = .false.
       fix_negative = .true.
       icloud_f = 1
       mp_time = 90.
/

 &interpolator_nml
       interp_method = 'conserve_great_circle'
/

 &namsfc
       FNGLAC   = "global_glacier.2x2.grb",
       FNMXIC   = "global_maxice.2x2.grb",
       FNTSFC   = "RTGSST.1982.2012.monthly.clim.grb",
       FNSNOC   = "global_snoclim.1.875.grb",
       FNZORC   = "igbp"
       !FNZORC   = "global_zorclim.1x1.grb",
       FNALBC   = "global_snowfree_albedo.bosu.t1534.3072.1536.rg.grb",
       FNALBC2  = "global_albedo4.1x1.grb",
       FNAISC   = "IMS-NIC.blended.ice.monthly.clim.grb",
       FNTG3C   = "global_tg3clim.2.6x1.5.grb",
       FNVEGC   = "global_vegfrac.0.144.decpercent.grb",
       FNVETC   = "global_vegtype.igbp.t1534.3072.1536.rg.grb",
       FNSOTC   = "global_soiltype.statsgo.t1534.3072.1536.rg.grb",
       FNSMCC   = "global_soilmgldas.t1534.3072.1536.grb",
       FNMSKH   = "seaice_newland.grb",
       FNTSFA   = "",
       FNACNA   = "",
       FNSNOA   = "",
       FNVMNC   = "global_shdmin.0.144x0.144.grb",
       FNVMXC   = "global_shdmax.0.144x0.144.grb",
       FNSLPC   = "global_slope.1x1.grb",
       FNABSC   = "global_mxsnoalb.uariz.t1534.3072.1536.rg.grb",
       LDEBUG   =.true.,
       FSMCL(2) = 99999
       FSMCL(3) = 99999
       FSMCL(4) = 99999
       FTSFS    = 90
       FAISS    = 99999
       FSNOL    = 99999
       FSICL    = 99999
       FTSFL    = 99999
       FAISL    = 99999
       FVETL    = 99999,
       FSOTL    = 99999,
       FvmnL    = 99999,
       FvmxL    = 99999,
       FSLPL    = 99999,
       FABSL    = 99999,
       FSNOS    = 99999,
       FSICS    = 99999,
/

 &nam_stochy
/

 &nam_sfcperts
/

 &cires_ugwp_nml
       knob_ugwp_solver  = 2
       knob_ugwp_source  = 1,1,0,0
       knob_ugwp_wvspec  = 1,25,25,25
       knob_ugwp_azdir   = 2,4,4,4
       knob_ugwp_stoch   = 0,0,0,0
       knob_ugwp_effac   = 1,1,1,1
       knob_ugwp_doaxyz  = 1
       knob_ugwp_doheat  = 1
       knob_ugwp_dokdis  = @[KNOB_UGWP_DOKDIS]
       knob_ugwp_ndx4lh  = @[KNOB_UGWP_NDX4LH]
       knob_ugwp_version = @[KNOB_UGWP_VERSION]
       ! This one is only for cires_ugwp_module.F90
@[HIDE_UGWPV0]      launch_level      = 25
       ! These are only for cires_ugwpv1_module.F90
@[HIDE_UGWPV1]      knob_ugwp_lzmax    = 15.750e3
@[HIDE_UGWPV1]      knob_ugwp_lzmin    = 0.75e3
@[HIDE_UGWPV1]      knob_ugwp_lzstar   = 2.0e3
@[HIDE_UGWPV1]      knob_ugwp_taumin   = 0.25e-3
@[HIDE_UGWPV1]      knob_ugwp_tauamp   = 3.0e-3
@[HIDE_UGWPV1]      knob_ugwp_lhmet    = 200.0e3
@[HIDE_UGWPV1]      knob_ugwp_orosolv  = 'pss-1986'
@[HIDE_UGWPV1]      knob_ugwp_palaunch = @[KNOB_UGWP_PALAUNCH]
@[HIDE_UGWPV1]      knob_ugwp_nslope   = @[KNOB_UGWP_NSLOPE]
/

 &MOM_input_nml
       output_directory = 'OUTPUT',
       input_filename = 'n'
       restart_input_dir = 'INPUT',
       restart_output_dir = 'RESTART',
       parameter_filename = 'MOM_input'
/
