&fms_nml
            clock_grain='ROUTINE'
            clock_flags='NONE'
            domains_stack_size = 5000000
            stack_size =0
/
 &MOM_input_nml
         output_directory = '@[MOM6_OUTPUT_DIR]',
         input_filename = '@[MOM6_RESTART_SETTING]'
         restart_input_dir = 'INPUT/',
         restart_output_dir = '@[MOM6_RESTART_DIR]',
         parameter_filename = 'INPUT/MOM_input',
                              'INPUT/MOM_override' /


&nam_stochy
new_lscale=.true.,
OCNSPPT=@[OCN_SPPT],
OCNSPPT_LSCALE=500e3,
OCNSPPT_TAU=21600,
ISEED_OCNSPPT=201601010012,
EPBL=@[EPBL],
EPBL_LSCALE=500e3,
EPBL_TAU=21600,
ISEED_EPBL=201601010023,
/
&nam_sfcperts
/
