 &atmos_model_nml
       blocksize = @[BLOCKSIZE]
       chksum_debug = .false.
       dycore_only = .false.
       avg_max_length = 3600.
       ccpp_suite = '@[CCPP_SUITE]'
/

 &diag_manager_nml
       prepend_date = .false.
/

 &mpp_io_nml
       header_buffer_val = 16384,
       global_field_on_root_pe = .true.,
       io_clocks_on = .false.,
       shuffle = 0,
       deflate_level = @[DEFLATE_LEVEL],
       cf_compliance = .false.
/

 &fms_io_nml
       checksum_required   = .false.
       max_files_r = 100,
       max_files_w = 100,
/

 &fms_nml
       clock_grain = 'ROUTINE',
       domains_stack_size = 30000000,
       print_memory_usage = .false.
/

 &fv_grid_nml
       !grid_file = 'INPUT/grid_spec.nc'
/

 &fv_core_nml
       layout = @[INPES],@[JNPES]
       io_layout = 1,1
       npx = @[NPX]
       npy = @[NPY]
       ntiles = 6
       npz = @[NPZ]
       !grid_type = -1
       make_nh = .false.
       fv_debug = .false.
       range_warn = .true.
       reset_eta = .false.
       n_sponge = 24
       nudge_qv = .false.
       nudge_dz = .false.
       tau = 5.
       rf_cutoff = 30.e2
       d2_bg_k1 = 0.16
       d2_bg_k2 = 0.05
       kord_tm = -9
       kord_mt =  9
       kord_wz =  9
       kord_tr =  9
       hydrostatic = .false.
       phys_hydrostatic = .false.
       use_hydro_pressure = .false.
       beta = 0.
       a_imp = 1.
       p_fac = 0.1
       k_split = @[K_SPLIT]
       n_split = @[N_SPLIT]
       nwat = @[NWAT]
       na_init = @[NA_INIT]
       d_ext = 0.0
       dnats = 1
       fv_sg_adj = 300
       d2_bg = 0.
       nord =  2
       dddmp = 0.1
       d4_bg = 0.15
       vtdm4 = 0.04
       delt_max = 0.002
       ke_bg = 0.
       do_vort_damp = .true.
       external_ic = @[EXTERNAL_IC]
       external_eta = .true.
       gfs_phil = .false.
       nggps_ic = @[NGGPS_IC]
       mountain = @[MOUNTAIN]
       ncep_ic = .false.
       d_con = 1.0
       hord_mt = 5
       hord_vt = 5
       hord_tm = 5
       hord_dp = -5
       hord_tr = 8
       adjust_dry_mass = .false.
       consv_te = 1.
       do_sat_adj = .true.
       consv_am = .false.
       fill = .true.
       dwind_2d = .false.
       print_freq = 3
       warm_start = @[WARM_START]
       no_dycore = .false.
       z_tracer = .true.
       agrid_vel_rst = .true.
       read_increment = .false.
       res_latlon_dynamics = "fv3_increment.nc"
       write_3d_diags = .true.

       do_schmidt = .true.
       target_lat = @[TARGET_LAT]
       target_lon = @[TARGET_LON]
       stretch_fac = @[STRETCH_FAC]

       full_zs_filter = @[FULL_ZS_FILTER]
       n_zs_filter = @[N_ZS_FILTER]
       nord_zs_filter = 4
/

 &fv_nest_nml
       grid_pes = @[GRID_PES]
       tile_coarse = @[TILE_COARSE]
       num_tile_top = @[NUM_TILE_TOP]
       p_split = 1
       nest_refine = @[NEST_REFINE]
       nest_ioffsets= @[NEST_IOFFSETS]
       nest_joffsets= @[NEST_JOFFSETS]
/

 &fv_moving_nest_nml
       surface_dir = "INPUT/moving_nest"
       is_moving_nest = @[IS_MOVING_NEST]
       vortex_tracker = @[VORTEX_TRACKER]
       ntrack = @[NTRACK]
       move_cd_x = @[MOVE_CD_X]
       move_cd_y = @[MOVE_CD_Y]
/

 &surf_map_nml
       zero_ocean = .false.
       cd4 = 0.15
       cd2 = -1
       n_del2_strong = 0
       n_del2_weak = 15
       n_del4 = 2
       max_slope = 0.4
       peak_fac = 1.
/

 &external_ic_nml
       filtered_terrain = .true.
       levp = @[NPZP]
       gfs_dwinds = .true.
       checker_tr = .false.
       nt_checker = 0
/

 &gfs_physics_nml
       fhzero         = 3.
       ldiag3d        = .false.
       lradar         = .true.
       avg_max_length = 3600.
       h2o_phys       = .true.
       fhcyc          = @[FHCYC]
       use_ufo        = .true.
       pre_rad        = .false.
       imp_physics    = 11
       pdfcld         = .false.
       fhswr          = @[FHSWR]
       fhlwr          = @[FHLWR]
       ialb           = 1
       iems           = 1
       iaer           = 111
       ico2           = 2
       isubc_sw       = 2
       isubc_lw       = 2
       isol           = 2
       lwhtr          = .true.
       swhtr          = .true.
       cnvgwd         = .true.
       shal_cnv       = .true. !Shallow convection
       cal_pre        = .false.
       redrag         = .true.
       dspheat        = .true.
       hybedmf        = .false.
       hurr_pbl       = .true.     ! HWRF moninedmf
       moninq_fac     = -1.0       ! HWRF_moninedmf
       satmedmf       = .true.
       isatmedmf      = 1
       rlmx           = 300.
       elmx           = 300.
       sfc_rlm        = 1
       random_clds    = .false.
       trans_trac     = .true.
       cnvcld         = .true.
       imfshalcnv     = 2
       imfdeepcnv     = 2
       cdmbgwd        = 1.0,1.0,1.0,1.0
       sfc_z0_type    = 6
       prslrd0        = 0.
       ivegsrc        = 1
       isot           = 1
       lsm            = 1
       iopt_dveg      = 2
       iopt_crs       = 1
       iopt_btr       = 1
       iopt_run       = 1
       iopt_sfc       = 1
       iopt_frz       = 1
       iopt_inf       = 1
       iopt_rad       = 1
       iopt_alb       = 2
       iopt_snf       = 4
       iopt_tbot      = 2
       iopt_stc       = 1
       iopt_trs       = 2
       debug          = .false.
       oz_phys        = .false.
       oz_phys_2015   = .true.
       nst_anl        = .true.
       nstf_name      = @[NSTF_NAME]
       cplflx         = @[CPLFLX]
       cplice         = .false.
       cplocn2atm     = @[CPLOCN2ATM]
       cplwav         = @[CPLWAV]
       cplwav2atm     = @[CPLWAV2ATM]
       cpl_imp_mrg    = @[CPL_IMP_MRG]
       psautco        = 0.0008, 0.0005
       prautco        = 0.00015, 0.00015
       iau_delthrs    = 6
       iaufhrs        = 30
       iau_inc_files  = ''
       iau_drymassfixer = .false.
       do_deep        = .true.
       lgfdlmprad     = .true.
       effr_in        = .true.
       do_sppt        = .false.
       do_shum        = .false.
       do_skeb        = .false.
       lndp_type      = 0
       n_var_lndp     = 0
       gwd_opt        = 2
       do_ugwp_v0     = .false.
       do_ugwp_v1     = .false.
       do_ugwp_v1_w_gsldrag = .false.
       do_ugwp_v1_orog_only = .false.
       do_gsl_drag_ls_bl    = .true.
       do_gsl_drag_ss       = .true.
       do_gsl_drag_tofd     = .true.
       do_ugwp_v0_orog_only = .false.
/

 &gfdl_cloud_microphysics_nml
       sedi_transport = .true.
       do_sedi_heat = .false.
       rad_snow = .true.
       rad_graupel = .true.
       rad_rain = .true.
       const_vi = .false.
       const_vs = .false.
       const_vg = .false.
       const_vr = .false.
       vi_max = 1.
       vs_max = 2.
       vg_max = 12.
       vr_max = 12.
       qi_lim = 1.
       prog_ccn = .false.
       do_qa = .true.
       fast_sat_adj = .true.
       tau_l2v = 180.
       tau_v2l = 90.
       tau_g2v = 900.
       rthresh = 10.e-6  ! This is a key parameter for cloud water
       dw_land  = 0.16
       dw_ocean = 0.10
       ql_gen = 1.0e-3
       ql_mlt = 1.0e-3
       qi0_crt = 8.0E-5
       qs0_crt = 1.0e-3
       tau_i2s = 1000.
       c_psaci = 0.05
       c_pgacs = 0.01
       rh_inc = 0.30
       rh_inr = 0.30
       rh_ins = 0.30
       ccn_l = 300.
       ccn_o = 100.
       c_paut = 0.5
       c_cracw = 0.8
       use_ppm = .false.
       use_ccn = .true.
       mono_prof = .true.
       z_slope_liq  = .true.
       z_slope_ice  = .true.
       de_ice = .false.
       fix_negative = .true.
       icloud_f = 1
       mp_time = 90.
/

 &interpolator_nml
       interp_method = 'conserve_great_circle'
/

 &namsfc
       FNGLAC   = "global_glacier.2x2.grb",
       FNMXIC   = "global_maxice.2x2.grb",
       FNTSFC   = "RTGSST.1982.2012.monthly.clim.grb",
       FNSNOC   = "global_snoclim.1.875.grb",
       FNZORC   = "igbp"
       !FNZORC   = "global_zorclim.1x1.grb",
       FNALBC   = "global_snowfree_albedo.bosu.t1534.3072.1536.rg.grb",
       FNALBC2  = "global_albedo4.1x1.grb",
       FNAISC   = "IMS-NIC.blended.ice.monthly.clim.grb",
       FNTG3C   = "global_tg3clim.2.6x1.5.grb",
       FNVEGC   = "global_vegfrac.0.144.decpercent.grb",
       FNVETC   = "global_vegtype.igbp.t1534.3072.1536.rg.grb",
       FNSOTC   = "global_soiltype.statsgo.t1534.3072.1536.rg.grb",
       FNSMCC   = "global_soilmgldas.t1534.3072.1536.grb",
       FNMSKH   = "seaice_newland.grb",
       FNTSFA   = "",
       FNACNA   = "",
       FNSNOA   = "",
       FNVMNC   = "global_shdmin.0.144x0.144.grb",
       FNVMXC   = "global_shdmax.0.144x0.144.grb",
       FNSLPC   = "global_slope.1x1.grb",
       FNABSC   = "global_mxsnoalb.uariz.t1534.3072.1536.rg.grb",
       LDEBUG   =.true.,
       FSMCL(2) = 99999
       FSMCL(3) = 99999
       FSMCL(4) = 99999
       FTSFS    = 90
       FAISS    = 99999
       FSNOL    = 99999
       FSICL    = 99999
       FTSFL    = 99999
       FAISL    = 99999
       FVETL    = 99999,
       FSOTL    = 99999,
       FvmnL    = 99999,
       FvmxL    = 99999,
       FSLPL    = 99999,
       FABSL    = 99999,
       FSNOS    = 99999,
       FSICS    = 99999,
/

 &nam_stochy
/

 &nam_sfcperts
/

 &cires_ugwp_nml
       knob_ugwp_solver  = 2
       knob_ugwp_source  = 1,1,0,0
       knob_ugwp_wvspec  = 1,25,25,25
       knob_ugwp_azdir   = 2,4,4,4
       knob_ugwp_stoch   = 0,0,0,0
       knob_ugwp_effac   = 1,1,1,1
       knob_ugwp_doaxyz  = 1
       knob_ugwp_doheat  = 1
       knob_ugwp_dokdis  = 1
       knob_ugwp_ndx4lh  = 1
       knob_ugwp_version = 0
       launch_level      = 25
/
