&atmos_model_nml
  blocksize = 32
  chksum_debug = .false.
  dycore_only = .false.
  ccpp_suite = "@[CCPP_SUITE]"
  
/

&diag_manager_nml
  prepend_date = .false.
  max_output_fields = @[MAX_OUTPUT_FIELDS]
  
/

&fms_nml
  clock_grain = 'ROUTINE'
  domains_stack_size = @[DOMAINS_STACK_SIZE]
  print_memory_usage = .false.
  
/

&fms2_io_nml
  netcdf_default_format = "netcdf4"
/

&fv_core_nml
  layout = @[INPES_NEST02],@[JNPES_NEST02]
  io_layout = 1,1
  npx = @[NPX_NEST02]
  npy = @[NPY_NEST02]
  ntiles = 1
  npz = @[NPZ]
  dz_min =  @[DZ_MIN]
  psm_bc = @[PSM_BC_NEST02]
  grid_type = 0
  make_nh = @[MAKE_NH]
  fv_debug = .false.
  range_warn = .true.
  reset_eta = .false.
  n_sponge = @[N_SPONGE]
  n_zs_filter = @[N_ZS_FILTER_NEST02]
  nudge_qv = .false.
  nudge_dz = .false.
  tau = @[FV_CORE_TAU_NEST02]
  rf_cutoff = @[RF_CUTOFF_NEST02]
  rf_fast = @[RF_FAST]
  sg_cutoff = @[SG_CUTOFF]
  upoff = @[UPOFF]
  d2_bg_k1 = @[D2_BG_K1_NEST02]
  d2_bg_k2 = @[D2_BG_K2_NEST02]
  kord_tm = -9
  kord_mt = 9
  kord_wz = 9
  kord_tr = 9
  hydrostatic = .false.
  phys_hydrostatic = .false.
  use_hydro_pressure = .false.
  beta = 0.
  a_imp = 1.
  p_fac = 0.1
  k_split = 4
  n_split = 5
  nwat = @[NWAT]
  na_init = @[NA_INIT]
  d_ext = @[D_EXT]
  dnats = @[DNATS]
  fv_sg_adj = @[FV_SG_ADJ]
  d2_bg = @[D2_BG_NEST02]
  nord = 2
  nord_zs_filter = @[NORD_ZS_FILTER]
  dddmp = @[DDDMP]
  d4_bg = @[D4_BG_NEST02]
  vtdm4 = @[VTDM4]
  delt_max = @[DELT_MAX_NEST02]
  ke_bg = 0.
  do_vort_damp = .true.
  external_ic = @[EXTERNAL_IC]
  external_eta = .true.
  gfs_phil = .false.
  nggps_ic = @[NGGPS_IC]
  mountain = @[MOUNTAIN]
  ncep_ic = .false.
  d_con = @[D_CON]
  hord_mt = @[HORD_MT_NEST02]
  hord_vt = @[HORD_VT_NEST02]
  hord_tm = @[HORD_TM_NEST02]
  hord_dp = @[HORD_DP_NEST02]
  hord_tr = @[HORD_TR_NEST02]
  adjust_dry_mass = .false.
  dry_mass =  @[DRY_MASS]
  consv_te = @[CONSV_TE_NEST02]
  do_sat_adj = @[DO_SAT_ADJ]
  fast_tau_w_sec = @[FAST_TAU_W_SEC_NEST02]
  consv_am = .false.
  fill = .true.
  dwind_2d = .false.
  print_freq = 6
  warm_start = @[WARM_START]
  no_dycore = .false.
  z_tracer = .true.
  agrid_vel_rst = .true.
  read_increment = @[READ_INCREMENT]
  res_latlon_dynamics = @[RES_LATLON_DYNAMICS]
  nested = @[NESTED]
  twowaynest = @[TWOWAYNEST02]
  nestupdate = 7
/

&external_ic_nml
  filtered_terrain = .true.
  levp = 128
  gfs_dwinds = .true.
  checker_tr = .false.
  nt_checker = 0
  
/

&surf_map_nml
  cd2 = -1
  cd4 = 0.15
  max_slope = 0.15
  n_del2_strong = @[N_DEL2_STRONG]
  n_del2_weak = @[N_DEL2_WEAK_NEST02]
  n_del4 = @[N_DEL4]
  peak_fac = @[PEAK_FAC]
  zero_ocean = @[ZERO_OCEAN]
/

&gfs_physics_nml
  fhzero       = @[FHZERO]
  h2o_phys     = @[H2O_PHYS]
  ldiag3d      = @[LDIAG3D]
  qdiag3d      = @[QDIAG3D]
  lightning_threat = @[LIGHTNING_THREAT]
  print_diff_pgr = @[PRINT_DIFF_PGR]
  fhcyc        = @[FHCYC]
  use_ufo      = .true.
  pre_rad      = .false.
  imp_physics  = @[IMP_PHYSICS]
  iovr         = @[IOVR]
  lcnorm       = @[LCNORM]
  ltaerosol    = .true.
  lradar       = .true.
  ttendlim     = -999
  dt_inner     = @[DT_INNER]
  sedi_semi    = @[SEDI_SEMI]
  decfl        = @[DECFL]
  oz_phys      = @[OZ_PHYS_NEW]
  oz_phys_2015 = @[OZ_PHYS_OLD]
  lsoil_lsm    = @[LSOIL_LSM]
  do_ca = @[DO_CA]
  do_mynnedmf  = @[DO_MYNNEDMF]
  do_mynnsfclay = @[DO_MYNNSFCLAY]
  icloud_bl    = 1
  bl_mynn_edmf = 1
  bl_mynn_tkeadvect = @[BL_MYNN_TKEADVECT]
  bl_mynn_edmf_mom = 1
  do_ugwp      = @[DO_UGWP]
  do_tofd      = @[DO_TOFD]
  gwd_opt      = @[GWD_OPT]
  do_ugwp_v0   = @[DO_UGWP_V0]
  do_ugwp_v1   = @[DO_UGWP_V1]
  do_ugwp_v0_orog_only = @[DO_UGWP_V0_OROG_ONLY]
  do_ugwp_v0_nst_only  = @[DO_UGWP_V0_NST_ONLY]
  do_gsl_drag_ls_bl    = @[DO_GSL_DRAG_LS_BL]
  do_gsl_drag_ss       = @[DO_GSL_DRAG_SS]
  do_gsl_drag_tofd     = @[DO_GSL_DRAG_TOFD]
  do_ugwp_v1_orog_only = @[DO_UGWP_V1_OROG_ONLY]
  do_ugwp_v1_w_gsldrag = @[DO_UGWP_V1_W_GSLDRAG]
  min_lakeice  = @[MIN_LAKEICE]
  min_seaice   = @[MIN_SEAICE]
  use_cice_alb = @[USE_CICE_ALB]
  pdfcld       = .false.
  fhswr        = @[FHSWR]
  fhlwr        = @[FHLWR]
  ialb         = @[IALB]
  iems         = @[IEMS]
  iaer         = @[IAER]
  icliq_sw     = @[ICLIQ_SW]
  ico2         = 2
  isubc_sw     = 2
  isubc_lw     = 2
  isol         = 2
  lwhtr        = .true.
  swhtr        = .true.
  cnvgwd       = @[CNVGWD_NEST02]
  shal_cnv     = @[SHAL_CNV]
  cal_pre      = .false.
  redrag       = .true.
  dspheat      = .true.
  hybedmf      = @[HYBEDMF]
  satmedmf     = @[SATMEDMF]
  isatmedmf    = @[ISATMEDMF]
  lheatstrg    = @[LHEATSTRG]
  lseaspray    = @[LSEASPRAY]
  random_clds  = @[RANDOM_CLDS]
  trans_trac   = .true.
  cnvcld       = @[CNVCLD]
  imfshalcnv   = @[IMFSHALCNV_NEST02]
  imfdeepcnv   = @[IMFDEEPCNV_NEST02]
  do_deep      = @[DO_DEEP_NEST02]
  ! NOTE: progsigma should be .true. for the global_nest_v1 suite.
  ! The code turns it off automatically at low resolutions.
  ! This leads to an erronious situation where it is off for the globe, but on for the nest.
  ! Hence, we turn it off manually, to avoid advecting a field of 0 from the nest boundary.
  ! For practical global resolutions (C384 or higher) it should be turned on.
  progsigma    = @[PROGSIGMA_NEST02]
  betascu      = @[BETASCU_NEST02]
  betamcu      = @[BETAMCU_NEST02]
  betadcu      = @[BETADCU_NEST02]
  ras          = @[RAS]
  cdmbgwd      = @[CDMBWD]
  prslrd0      = 0.
  ivegsrc      = 1
  isot         = 1
  lsoil        = 4
  lsm          = @[LSM]
  iopt_dveg    = @[IOPT_DVEG]
  iopt_crs     = @[IOPT_CRS]
  iopt_btr     = 1
  iopt_run     = 1
  iopt_sfc     = @[IOPT_SFC]
  iopt_frz     = 1
  iopt_inf     = 1
  iopt_rad     = @[IOPT_RAD]
  iopt_alb     = @[IOPT_ALB]
  iopt_snf     = 4
  iopt_tbot    = 2
  iopt_stc     = @[IOPT_STC]
  iopt_trs     = @[IOPT_TRS]
  iopt_diag    = @[IOPT_DIAG]
  debug        = .false.
  nstf_name    = @[NSTF_NAME]
  nst_anl      = .true.
  psautco      = 0.0008,0.0005
  prautco      = 0.00015,0.00015
  lgfdlmprad   = @[LGFDLMPRAD]
  effr_in      = @[EFFR_IN]
  ldiag_ugwp   = @[LDIAG_UGWP]
  do_RRTMGP          = @[DO_RRTMGP]
  active_gases       = 'h2o_co2_o3_n2o_ch4_o2'
  ngases             = @[NGASES]
  lw_file_gas        = 'rrtmgp-data-lw-g128-210809.nc'
  lw_file_clouds     = 'rrtmgp-cloud-optics-coeffs-lw.nc'
  sw_file_gas        = 'rrtmgp-data-sw-g112-210809.nc'
  sw_file_clouds     = 'rrtmgp-cloud-optics-coeffs-sw.nc'
  rrtmgp_nGptsSW     = 112
  rrtmgp_nGptsLW     = 128
  rrtmgp_nBandsLW    = 16
  rrtmgp_nBandsSW    = 14
  doGP_cldoptics_LUT = @[DOGP_CLDOPTICS_LUT]
  doGP_lwscat        = @[DOGP_LWSCAT]
  do_sppt      = @[DO_SPPT]
  do_shum      = @[DO_SHUM]
  do_skeb      = @[DO_SKEB]
  frac_grid    = @[FRAC_GRID]
  cplchm       = @[CPLCHM]
  cplflx       = @[CPLFLX]
  cplice       = @[CPLICE]
  cplwav       = @[CPLWAV]
  cplwav2atm   = @[CPLWAV2ATM]
/

&cires_ugwp_nml
  knob_ugwp_solver  = 2
  knob_ugwp_source  = 1,1,0,0
  knob_ugwp_wvspec  = 1,25,25,25
  knob_ugwp_azdir   = 2,4,4,4
  knob_ugwp_stoch   = 0,0,0,0
  knob_ugwp_effac   = 1,1,1,1
  knob_ugwp_doaxyz  = 1
  knob_ugwp_doheat  = 1
  knob_ugwp_dokdis  = @[KNOB_UGWP_DOKDIS]
  knob_ugwp_ndx4lh  = @[KNOB_UGWP_NDX4LH]
  knob_ugwp_version = @[KNOB_UGWP_VERSION]
  knob_ugwp_palaunch = @[KNOB_UGWP_PALAUNCH]
  knob_ugwp_nslope   = @[KNOB_UGWP_NSLOPE]
  knob_ugwp_lzmax    = 15.750e3
  knob_ugwp_lzmin    = 0.75e3
  knob_ugwp_lzstar   = 2.0e3
  knob_ugwp_taumin   = 0.25e-3
  knob_ugwp_tauamp   = @[KNOB_UGWP_TAUAMP]
  knob_ugwp_lhmet    = 200.0e3
  knob_ugwp_orosolv  = 'pss-1986'
/

&gfdl_cloud_microphysics_nml
  sedi_transport = .true.
  do_sedi_heat = .false.
  rad_snow = .true.
  rad_graupel = .true.
  rad_rain = .true.
  const_vi = .false.
  const_vs = .false.
  const_vg = .false.
  const_vr = .false.
  vi_max = 1.
  vs_max = 2.
  vg_max = 12.
  vr_max = 12.
  qi_lim = 1.
  prog_ccn = .false.
  do_qa = .true.
  fast_sat_adj = .true.
  tau_l2v = 225.
  tau_v2l = 150.
  tau_g2v = 900.
  rthresh = 10.e-6  ! This is a key parameter for cloud water
  dw_land  = 0.16
  dw_ocean = 0.10
  ql_gen = 1.0e-3
  ql_mlt = 1.0e-3
  qi0_crt = 8.0E-5
  qs0_crt = 1.0e-3
  tau_i2s = 1000.
  c_psaci = 0.05
  c_pgacs = 0.01
  rh_inc = 0.30
  rh_inr = 0.30
  rh_ins = 0.30
  ccn_l = 300.
  ccn_o = 100.
  c_paut = 0.5
  c_cracw = 0.8
  use_ppm = .false.
  use_ccn = .true.
  mono_prof = .true.
  z_slope_liq  = .true.
  z_slope_ice  = .true.
  de_ice = .false.
  fix_negative = .true.
  icloud_f = 1
  mp_time = 150.
  reiflag = 2

  
/

&interpolator_nml
  interp_method = 'conserve_great_circle'
  
/

&namsfc
  FNGLAC   = @[FNGLAC]
  FNMXIC   = @[FNMXIC]
  FNTSFC   = @[FNTSFC]
  FNSNOC   = @[FNSNOC]
  FNZORC   = @[FNZORC]
  FNALBC   = @[FNALBC]
  FNALBC2  = @[FNALBC2]
  FNAISC   = @[FNAISC]
  FNTG3C   = @[FNTG3C]
  FNVEGC   = @[FNVEGC]
  FNVETC   = @[FNVETC]
  FNSOTC   = @[FNSOTC]
  FNSOCC   = @[FNSOCC]
  FNSMCC   = @[FNSMCC]
  FNMSKH   = @[FNMSKH]
  FNTSFA   = @[FNTSFA]
  FNACNA   = @[FNACNA]
  FNSNOA   = @[FNSNOA]
  FNVMNC   = @[FNVMNC]
  FNVMXC   = @[FNVMXC]
  FNSLPC   = @[FNSLPC]
  FNABSC   = @[FNABSC]
  LDEBUG = .false.
  FSMCL(2) = 99999
  FSMCL(3) = 99999
  FSMCL(4) = 99999
  LANDICE  = @[LANDICE]
  FTSFS = @[FTSFS]
  FAISL = 99999
  FAISS = 99999
  FSNOL = 99999
  FSNOS = 99999
  FSICL = @[FSICL]
  FSICS = @[FSICS]
  FTSFL = 99999
  FVETL = 99999
  FSOTL = 99999
  FvmnL = 99999
  FvmxL = 99999
  FSLPL = 99999
  FABSL = 99999
  
/

&fv_grid_nml
  
/

&nam_stochy
/
&nam_sfcperts
/
