&fms_nml
            clock_grain='ROUTINE'
            clock_flags='NONE'
            domains_stack_size = 5000000
            stack_size =0
/
 &MOM_input_nml
         output_directory = 'MOM6_OUTPUT/',
         input_filename = '@[MOM6_RESTART_SETTING]'
         restart_input_dir = 'INPUT/',
         restart_output_dir = 'RESTART/',
         parameter_filename = 'INPUT/MOM_input',
                              'INPUT/MOM_override' /


