&atmos_model_nml
  blocksize = 32
  chksum_debug = .false.
  dycore_only = .false.
  ccpp_suite = '@[CCPP_SUITE]'
/

&diag_manager_nml
  prepend_date = .false.
  max_output_fields = @[MAX_OUTPUT_FIELDS]
/

&fms_nml
  clock_grain = 'ROUTINE'
  domains_stack_size = 3000000
  print_memory_usage = .false.
/

&fms2_io_nml
  netcdf_default_format = "netcdf4"
/

&fv_core_nml
  layout = @[INPES],@[JNPES]
  io_layout = 1,1
  npx = @[NPX]
  npy = @[NPY]
  ntiles = 6
  npz = @[NPZ]
  grid_type = -1
  make_nh = @[MAKE_NH]
  fv_debug = .false.
  range_warn = .false.
  reset_eta = .false.
  n_sponge = 42
  nudge_qv = .true.
  nudge_dz = .false.
  tau = 10.
  rf_cutoff = 7.5e2
  d2_bg_k1 = 0.20
  d2_bg_k2 = 0.0
  kord_tm = -9
  kord_mt = 9
  kord_wz = 9
  kord_tr = 9
  hydrostatic = .false.
  phys_hydrostatic = .false.
  use_hydro_pressure = .false.
  beta = 0.
  a_imp = 1.
  p_fac = 0.1
  k_split = 2
  n_split = 6
  nwat = @[NWAT]
  na_init = @[NA_INIT]
  d_ext = 0.
  dnats = @[DNATS]
  fv_sg_adj = 450
  d2_bg = 0.
  nord = 2
  dddmp = 0.1
  d4_bg = 0.12
  vtdm4 = 0.02
  delt_max = 0.002
  ke_bg = 0.
  do_vort_damp = .true.
  external_ic = @[EXTERNAL_IC]
  external_eta = .true.
  gfs_phil = .false.
  nggps_ic = @[NGGPS_IC]
  mountain = @[MOUNTAIN]
  ncep_ic = .false.
  d_con = 1.
  hord_mt = 5
  hord_vt = 5
  hord_tm = 5
  hord_dp = -5
  hord_tr = 8
  adjust_dry_mass = .false.
  consv_te = 1.
  do_sat_adj = @[DO_SAT_ADJ]
  consv_am = .false.
  fill = .true.
  dwind_2d = .false.
  print_freq = 6
  warm_start = @[WARM_START]
  no_dycore = .false.
  z_tracer = .true.
  agrid_vel_rst = .true.
  read_increment = @[READ_INCREMENT]
  res_latlon_dynamics = @[RES_LATLON_DYNAMICS]
/

&external_ic_nml
  filtered_terrain = .true.
  levp = @[NPZP]
  gfs_dwinds = .true.
  checker_tr = .false.
  nt_checker = 0
/

&gfs_physics_nml
  sfclay_compute_flux = @[SFCLAY_COMPUTE_FLUX]
  fhzero       = @[FHZERO]
  h2o_phys     = .true.
  ldiag3d      = @[LDIAG3D]
  qdiag3d      = @[QDIAG3D]
  print_diff_pgr = @[PRINT_DIFF_PGR]
  fhcyc        = @[FHCYC]
  use_ufo      = .true.
  pre_rad      = .false.
  imp_physics  = @[IMP_PHYSICS]
  ltaerosol    = @[LTAEROSOL]
  lradar       = @[LRADAR]
  sedi_semi    = @[SEDI_SEMI]
  decfl        = @[DECFL]
  nssl_cccn    = @[NSSL_CCCN]
  nssl_alphah  = @[NSSL_ALPHAH]
  nssl_alphahl = @[NSSL_ALPHAHL]
  nssl_hail_on = @[NSSL_HAIL_ON]
  nssl_ccn_on  = @[NSSL_CCN_ON]
  nssl_invertccn = @[NSSL_INVERTCCN]
  dt_inner     = 60
  ttendlim     = -999
  pdfcld       = .false.
  fhswr        = 3600.
  fhlwr        = 3600.
  frac_ice     = @[FRAC_ICE]
  ialb         = @[IALB]
  iems         = @[IEMS]
  iaer         = @[IAER]
  icliq_sw     = @[ICLIQ_SW]
  iovr         = @[IOVR]
  icloud       = @[ICLOUD]
  ico2         = 2
  isubc_sw     = 2
  isubc_lw     = 2
  isol         = 2
  lwhtr        = .true.
  swhtr        = .true.
  cnvgwd       = .true.
  do_deep      = @[DO_DEEP]
  shal_cnv     = @[SHAL_CNV]
  cal_pre      = .false.
  redrag       = .true.
  dspheat      = .true.
  hybedmf      = @[HYBEDMF]
  satmedmf     = @[SATMEDMF]
  isatmedmf    = 1
  do_mynnedmf  = @[DO_MYNNEDMF]
  lheatstrg    = @[LHEATSTRG]
  lseaspray    = @[LSEASPRAY]
  random_clds  = .false.
  trans_trac   = .true.
  cnvcld       = .true.
  imfshalcnv   = @[IMFSHALCNV]
  imfdeepcnv   = @[IMFDEEPCNV]
  ras          = @[RAS]
  cdmbgwd      = @[CDMBWD]
  do_mynnsfclay= @[DO_MYNNSFCLAY]
  prslrd0      = 0.
  ivegsrc      = 1
  isot         = 1
  lsm          = @[LSM]
  lsoil        = 4
  lsoil_lsm    = @[LSOIL_LSM]
  kice         = @[KICE]
  iopt_dveg    = 4
  iopt_crs     = 2
  iopt_btr     = 1
  iopt_run     = 1
  iopt_sfc     = 4
  iopt_frz     = 1
  iopt_inf     = 1
  iopt_rad     = 3
  iopt_alb     = 1
  iopt_snf     = 4
  iopt_tbot    = 2
  iopt_stc     = 3
  iopt_trs     = 2
  iopt_diag    = 2
  debug        = .false.
  oz_phys      = .false.
  oz_phys_2015 = .true.
  nstf_name    = 2,0,0,0,0
  nst_anl      = .true.
  lkm          = @[LKM]
  iopt_lake    = @[IOPT_LAKE]
  psautco      = 0.0008,0.0005
  prautco      = 0.00015,0.00015
  lgfdlmprad   = .true.
  cplchm       = @[CPLCHM]
  cplwav       = @[CPLWAV]
  cplwav2atm   = @[CPLWAV2ATM]
  effr_in      = .true.
  do_ugwp              = @[DO_UGWP]
  do_tofd              = @[DO_TOFD]
  gwd_opt              = @[GWD_OPT]
  ldiag_ugwp           = @[LDIAG_UGWP]
  do_ugwp_v0           = @[DO_UGWP_V0]
  do_ugwp_v0_orog_only = @[DO_UGWP_V0_OROG_ONLY]
  do_gsl_drag_ls_bl    = @[DO_GSL_DRAG_LS_BL]
  do_gsl_drag_ss       = @[DO_GSL_DRAG_SS]
  do_gsl_drag_tofd     = @[DO_GSL_DRAG_TOFD]
  do_ugwp_v1           = @[DO_UGWP_V1]
  do_ugwp_v1_orog_only = @[DO_UGWP_V1_OROG_ONLY]
  do_sppt      = @[DO_SPPT]
  do_shum      = @[DO_SHUM]
  do_skeb      = @[DO_SKEB]
  lndp_type    = @[LNDP_TYPE]
  n_var_lndp   = @[N_VAR_LNDP]
  fscav_aero   = @[FSCAV_AERO]
  icloud_bl         = 1
  bl_mynn_tkeadvect = .true.
  bl_mynn_edmf      = 1
  bl_mynn_edmf_mom  = 1
  do_RRTMGP          = @[DO_RRTMGP]
  active_gases       = 'h2o_co2_o3_n2o_ch4_o2'
  ngases             = 6
  lw_file_gas        = 'rrtmgp-data-lw-g128-210809.nc'
  lw_file_clouds     = 'rrtmgp-cloud-optics-coeffs-lw.nc'
  sw_file_gas        = 'rrtmgp-data-sw-g112-210809.nc'
  sw_file_clouds     = 'rrtmgp-cloud-optics-coeffs-sw.nc'
  rrtmgp_nGptsSW     = 112
  rrtmgp_nGptsLW     = 128
  rrtmgp_nBandsLW    = 16
  rrtmgp_nBandsSW    = 14
  doGP_cldoptics_LUT = @[DOGP_CLDOPTICS_LUT]
  doGP_lwscat        = @[DOGP_LWSCAT]
/

&gfdl_cloud_microphysics_nml
  sedi_transport = .true.
  do_sedi_heat = .false.
  rad_snow = .true.
  rad_graupel = .true.
  rad_rain = .true.
  const_vi = .false.
  const_vs = .false.
  const_vg = .false.
  const_vr = .false.
  vi_max = 1.
  vs_max = 2.
  vg_max = 12.
  vr_max = 12.
  qi_lim = 1.
  prog_ccn = .false.
  do_qa = .true.
  fast_sat_adj = .true.
  tau_l2v = 225.
  tau_v2l = 150.
  tau_g2v = 900.
  rthresh = 10.e-6  ! This is a key parameter for cloud water
  dw_land  = 0.16
  dw_ocean = 0.10
  ql_gen = 1.0e-3
  ql_mlt = 1.0e-3
  qi0_crt = 8.0E-5
  qs0_crt = 1.0e-3
  tau_i2s = 1000.
  c_psaci = 0.05
  c_pgacs = 0.01
  rh_inc = 0.30
  rh_inr = 0.30
  rh_ins = 0.30
  ccn_l = 300.
  ccn_o = 100.
  c_paut = 0.5
  c_cracw = 0.8
  use_ppm = .false.
  use_ccn = .true.
  mono_prof = .true.
  z_slope_liq  = .true.
  z_slope_ice  = .true.
  de_ice = .false.
  fix_negative = .true.
  icloud_f = 1
  mp_time = 150.
  reiflag = 2
/

&interpolator_nml
  interp_method = 'conserve_great_circle'
/

&namsfc
  FNGLAC   = 'global_glacier.2x2.grb'
  FNMXIC   = 'global_maxice.2x2.grb'
  FNTSFC   = 'RTGSST.1982.2012.monthly.clim.grb'
  FNSNOC   = 'global_snoclim.1.875.grb'
  FNZORC   = 'igbp'
  FNALBC   = @[FNALBC]
  FNALBC2  = 'global_albedo4.1x1.grb'
  FNAISC   = 'CFSR.SEAICE.1982.2012.monthly.clim.grb'
  FNTG3C   = 'global_tg3clim.2.6x1.5.grb'
  FNVEGC   = 'global_vegfrac.0.144.decpercent.grb'
  FNVETC   = @[FNVETC]
  FNSOTC   = @[FNSOTC]
  FNSMCC   = @[FNSMCC_control]
  FNMSKH   = @[FNMSKH_control]
  FNTSFA   = ''
  FNACNA   = ''
  FNSNOA   = ''
  FNVMNC   = 'global_shdmin.0.144x0.144.grb'
  FNVMXC   = 'global_shdmax.0.144x0.144.grb'
  FNSLPC   = 'global_slope.1x1.grb'
  FNABSC   = @[FNABSC]
  LDEBUG   = .false.
  FSMCL(2) = 99999
  FSMCL(3) = 99999
  FSMCL(4) = 99999
  LANDICE  = .true.
  FTSFS    = 90
  FAISL    = 99999
  FAISS    = 99999
  FSNOL    = 99999
  FSNOS    = 99999
  FSICL    = 99999
  FSICS    = 99999
  FTSFL    = 99999
  FVETL    = 99999
  FSOTL    = 99999
  FvmnL    = 99999
  FvmxL    = 99999
  FSLPL    = 99999
  FABSL    = 99999
/

&fv_grid_nml
  grid_file = 'INPUT/grid_spec.nc'
/

&nam_stochy
  STOCHINI=@[STOCHINI],
  SKEBNORM=1,
  SKEB_NPASS=30,
  SKEB_VDOF=5,
  SKEB=@[SKEB],
  SKEB_TAU=2.16E4,
  SKEB_LSCALE=1000.E3,
  SKEBINT=1800,
  SHUM=@[SHUM],
  SHUM_TAU=21600,
  SHUM_LSCALE=500000,
  SHUMINT=3600,
  SPPT=@[SPPT],
  SPPT_TAU=21600,
  SPPT_LSCALE=500000,
  SPPT_LOGIT=.TRUE.,
  SPPT_SFCLIMIT=.TRUE.,
  SPPTINT=1800,
  ISEED_SHUM=1,
  ISEED_SKEB=2,
  ISEED_SPPT=3,
/

&nam_sfcperts
  lndp_type      = @[LNDP_TYPE]
  lndp_model_type = @[LNDP_MODEL_TYPE]
  LNDP_TAU=21600,
  LNDP_LSCALE=500000,
  ISEED_LNDP=2010,
  lndp_var_list = 'smc', 'vgf', 'alb', 'sal', 'emi', 'zol'
  lndp_prt_list = 0.017, 0.001, 0.001, 0.001, 0.001, 0.001
/

&cires_ugwp_nml
  knob_ugwp_solver  = 2
  knob_ugwp_source  = 1,1,0,0
  knob_ugwp_wvspec  = 1,25,25,25
  knob_ugwp_azdir   = 2,4,4,4
  knob_ugwp_stoch   = 0,0,0,0
  knob_ugwp_effac   = 1,1,1,1
  knob_ugwp_doaxyz  = 1
  knob_ugwp_doheat  = 1
  knob_ugwp_dokdis  = 1
  knob_ugwp_ndx4lh  = 1
  knob_ugwp_version = 0
  launch_level      = 54
/
