&atmos_model_nml
    avg_max_length = 3600.0
    blocksize = 32
    ccpp_suite = '@[CCPP_SUITE]'
    chksum_debug = .false.
    dycore_only = .false.
/

&cires_ugwp_nml
    knob_ugwp_azdir = 2, 4, 4, 4
    knob_ugwp_doaxyz = 1
    knob_ugwp_doheat = 1
    knob_ugwp_dokdis = 1
    knob_ugwp_effac = 1, 1, 1, 1
    knob_ugwp_ndx4lh = 1
    knob_ugwp_solver = 2
    knob_ugwp_source = 1, 1, 0, 0
    knob_ugwp_stoch = 0, 0, 0, 0
    knob_ugwp_version = 0
    knob_ugwp_wvspec = 1, 25, 25, 25
    launch_level = 25
/

&diag_manager_nml
    prepend_date = .false.
/

&external_ic_nml
    checker_tr = .false.
    filtered_terrain = .true.
    gfs_dwinds = .true.
    levp = 65
    nt_checker = 0
/

&fms_nml
    clock_grain = 'ROUTINE'
    domains_stack_size = 3000000
    print_memory_usage = .false.
/

&fms2_io_nml
  netcdf_default_format = "netcdf4"
/

&fv_core_nml
    a_imp = 1.0
    adjust_dry_mass = .false.
    bc_update_interval = 3
    beta = 0.0
    consv_am = .false.
    consv_te = 0.0
    d2_bg = 0.0
    d2_bg_k1 = 0.2
    d2_bg_k2 = 0.04
    d4_bg = 0.12
    d_con = 1.0
    d_ext = 0.0
    dddmp = 0.1
    delt_max = 0.008
    dnats = @[DNATS]
    do_sat_adj = @[DO_SAT_ADJ]
    do_schmidt = .true.
    do_vort_damp = .true.
    dwind_2d = .false.
    dz_min = 2
    external_eta = .true.
    external_ic = .true.
    fill = .true.
    full_zs_filter = .false.
    fv_debug = .false.
    fv_sg_adj = 300
    gfs_phil = .false.
    hord_dp = 6
    hord_mt = 6
    hord_tm = 6
    hord_tr = 10
    hord_vt = 6
    hydrostatic = .false.
    io_layout = 1, 1
    k_split = 2
    ke_bg = 0.0
    kord_mt = 9
    kord_tm = -9
    kord_tr = 9
    kord_wz = 9
    layout = @[INPES],@[JNPES]
    make_nh = .true.
    mountain = .false.
    n_split = 5
    n_sponge = 9
    n_zs_filter = 0
    na_init = 1
    ncep_ic = .false.
    nggps_ic = .true.
    no_dycore = .false.
    nord = 3
    npx = 321
    npy = 193
    npz = 64
    npz_type = ''
    nrows_blend = 10
    ntiles = 1
    nudge_qv = .false.
    nwat = @[NWAT]
    p_fac = 0.1
    phys_hydrostatic = .false.
    print_freq = 6
    psm_bc = 1
    range_warn = .true.
    read_increment = .false.
    regional = .true.
    regional_bcs_from_gsi = .false.
    res_latlon_dynamics = 'fv3_increment.nc'
    reset_eta = .false.
    rf_cutoff = 2000.0
    stretch_fac = 0.999
    target_lat = 38.0
    target_lon = -120.0
    tau = 5.0
    use_hydro_pressure = .false.
    vtdm4 = 0.02
    warm_start = .false.
    write_restart_with_bcs = .false.
    z_tracer = .true.
/

&fv_grid_nml
    grid_file = 'INPUT/grid_spec.nc'
/

&gfs_physics_nml
    bl_mynn_edmf = 1
    bl_mynn_edmf_mom = 1
    bl_mynn_tkeadvect = .true.
    cal_pre = .false.
    cdmbgwd = 3.5, 0.25
    cnvcld = .false.
    cnvgwd = .false.
    cplflx = .false.
    debug = .false.
    do_deep = @[DO_DEEP]
    do_mynnedmf = @[DO_MYNNEDMF]
    do_mynnsfclay = @[DO_MYNNSFCLAY]
    do_shum = .false.
    do_skeb = .false.
    do_spp  = .false.
    do_sppt = .false.
    dspheat = .true.
    effr_in = .true.
    fhcyc = 0.0
    fhlwr = 1200.0
    fhswr = 1200.0
    fhzero = 1.0
    h2o_phys = @[H2O_PHYS]
    hybedmf = @[HYBEDMF]
    iaer = 111
    ialb = @[IALB]
    iau_delthrs = 6
    iau_inc_files = ''
    iaufhrs = 30
    icloud_bl = 1
    ico2 = 2
    iems = @[IEMS]
    imfdeepcnv = @[IMFDEEPCNV]
    imfshalcnv = @[IMFSHALCNV]
    imp_physics = @[IMP_PHYSICS]
    iopt_alb = 2
    iopt_btr = 1
    iopt_crs = 1
    iopt_dveg = 2
    iopt_frz = 1
    iopt_inf = 1
    iopt_rad = 1
    iopt_run = 1
    iopt_sfc = 1
    iopt_snf = 4
    iopt_stc = 1
    iopt_tbot = 2
    isol = 2
    isot = 1
    isubc_lw = 2
    isubc_sw = 2
    ivegsrc = 1
    ldiag3d = .false.
    lheatstrg = .false.
    lndp_type = 0
    lradar = .true.
    lsm = @[LSM]
    lsoil = 4
    lsoil_lsm = @[LSOIL_LSM]
    ltaerosol = @[LTAEROSOL]
    lwhtr = .true.
    n_var_lndp = 0
    n_var_spp = 0
    nsfullradar_diag = 3600
    nssl_cccn    = @[NSSL_CCCN]
    nssl_ccn_on  = @[NSSL_CCN_ON]
    nssl_hail_on = @[NSSL_HAIL_ON]
    nst_anl = .true.
    nstf_name = @[NSTF_NAME]
    oz_phys = .false.
    oz_phys_2015 = .true.
    pdfcld = .false.
    pre_rad = .false.
    print_diff_pgr = .true.
    prslrd0 = 0.0
    random_clds = .false.
    redrag = .true.
    satmedmf = .false.
    shal_cnv = @[SHAL_CNV]
    swhtr = .true.
    trans_trac = .true.
    ttendlim = -999
    use_ufo = .true.
/

&interpolator_nml
    interp_method = 'conserve_great_circle'
/

&namsfc
    fabsl = 99999
    faisl = 99999
    faiss = 99999
    fnabsc = 'C3337.maximum_snow_albedo.tileX.nc'
    fnacna = ''
    fnaisc = 'CFSR.SEAICE.1982.2012.monthly.clim.grb'
    fnalbc = 'C3337.snowfree_albedo.tileX.nc'
    fnalbc2 = 'C3337.facsf.tileX.nc'
    fnglac = 'global_glacier.2x2.grb'
    fnmskh = 'seaice_newland.grb'
    fnmxic = 'global_maxice.2x2.grb'
    fnslpc = 'C3337.slope_type.tileX.nc'
    fnsmcc = 'global_soilmgldas.t126.384.190.grb'
    fnsnoa = ''
    fnsnoc = 'global_snoclim.1.875.grb'
    fnsotc = 'C3337.soil_type.tileX.nc'
    fntg3c = 'C3337.substrate_temperature.tileX.nc'
    fntsfa = ''
    fntsfc = 'RTGSST.1982.2012.monthly.clim.grb'
    fnvegc = 'C3337.vegetation_greenness.tileX.nc'
    fnvetc = 'C3337.vegetation_type.tileX.nc'
    fnvmnc = 'C3337.vegetation_greenness.tileX.nc'
    fnvmxc = 'C3337.vegetation_greenness.tileX.nc'
    fnzorc = 'igbp'
    fsicl = 99999
    fsics = 99999
    fslpl = 99999
    fsmcl = 99999, 99999, 99999
    fsnol = 99999
    fsnos = 99999
    fsotl = 99999
    ftsfl = 99999
    ftsfs = 90
    fvetl = 99999
    fvmnl = 99999
    fvmxl = 99999
    ldebug = .true.
/
