! This configuration is supposed to match the rrfs_dev1 parallel, so
! do not change the namelist without checking the current parallel.

&atmos_model_nml
    blocksize = 32
    ccpp_suite = '@[CCPP_SUITE]'
    chksum_debug = .false.
    dycore_only = .false.
/

&cires_ugwp_nml
    knob_ugwp_azdir = 2, 4, 4, 4
    knob_ugwp_doaxyz = 1
    knob_ugwp_doheat = 1
    knob_ugwp_dokdis = 1
    knob_ugwp_effac = 1, 1, 1, 1
    knob_ugwp_ndx4lh = 1
    knob_ugwp_solver = 2
    knob_ugwp_source = 1, 1, 0, 0
    knob_ugwp_stoch = 0, 0, 0, 0
    knob_ugwp_version = 0
    knob_ugwp_wvspec = 1, 25, 25, 25
    launch_level = 25
/

&diag_manager_nml
    prepend_date = .false.
    max_output_fields = @[MAX_OUTPUT_FIELDS]
/

&external_ic_nml
    checker_tr = .false.
    filtered_terrain = .true.
    gfs_dwinds = .true.
    levp = 66
    nt_checker = 0
/

&fms_io_nml
    checksum_required = .false.
    max_files_r = 100
    max_files_w = 100
/

&fms_nml
    clock_grain = 'ROUTINE'
    domains_stack_size = 5000000 ! Smoke needs a higher value than 3000000 default.
    print_memory_usage = .false.
/

&fv_core_nml
    a_imp = 1.0
    adjust_dry_mass = .false.
    bc_update_interval = 1
    beta = 0.0
    consv_am = .false.
    consv_te = 0.0
    d2_bg = 0.0
    d2_bg_k1 = 0.2
    d2_bg_k2 = 0
    d4_bg = 0.15
    d_con = 0.5
    d_ext = 0.0
    dddmp = 0.1
    delt_max = 0.008
    dnats = @[DNATS]
    do_sat_adj = @[DO_SAT_ADJ]
    do_schmidt = .true.
    do_vort_damp = .true.
    dwind_2d = .false.
    dz_min = 6.0
    external_eta = .true.
    external_ic = @[EXTERNAL_IC]
    fill = .true.
    full_zs_filter = .false.
    fv_debug = .false.
    fv_sg_adj = 300
    gfs_phil = .false.
    hord_dp = -5
    hord_mt = 5
    hord_tm = 5
    hord_tr = 10
    hord_vt = 5
    hydrostatic = .false.
    io_layout = 1, 1
    k_split = 6
    ke_bg = 0.0
    kord_mt = 9
    kord_tm = -9
    kord_tr = 9
    kord_wz = 9
    layout = @[INPES],@[JNPES]
    make_nh = @[MAKE_NH]
    mountain = @[MOUNTAIN]
    n_split = 3
    n_sponge = 9
    n_zs_filter = 0
    na_init = @[NA_INIT]
    ncep_ic = .false.
    nggps_ic = @[NGGPS_IC]
    no_dycore = .false.
    nord = 2
    nord_tr = 2
    npx = @[NPX]
    npy = @[NPY]
    npz = @[NPZ]
    nrows_blend = 20
    ntiles = 1
    nudge_qv = .false.
    nwat = 6
    p_fac = 0.1
    phys_hydrostatic = .false.
    print_freq = 6
    psm_bc = 1
    range_warn = .true.
    read_increment = @[READ_INCREMENT]
    regional = .true.
    regional_bcs_from_gsi = .false.
    res_latlon_dynamics = @[RES_LATLON_DYNAMICS]
    reset_eta = .false.
    rf_cutoff = 20000.0
    sg_cutoff = 10000.0
    stretch_fac = 0.999
    target_lat = 38.5
    target_lon = -97.5
    tau = 5.0
    use_hydro_pressure = .false.
    vtdm4 = 0.03
    warm_start = @[WARM_START]
    write_restart_with_bcs = .false.
    z_tracer = .true.
/

&fv_grid_nml
    grid_file = 'INPUT/grid_spec.nc'
/


&gfs_physics_nml
    sfclay_compute_flux = @[SFCLAY_COMPUTE_FLUX]
    lightning_threat = .true.
    fh_dfi_radar = @[FH_DFI_RADAR]
    bl_mynn_edmf = 1
    bl_mynn_edmf_mom = 1
    bl_mynn_tkeadvect = .true.
    rrfs_sd = @[RRFS_SMOKE]
    rrfs_smoke_debug = .false.
    seas_opt = @[SEAS_OPT]
    mix_chem = @[RRFS_SMOKE]
    enh_mix = @[RRFS_SMOKE]
    dust_opt = 5
    drydep_opt = 1 
    coarsepm_settling = 1
    smoke_forecast = @[SMOKE_FORECAST]
    aero_ind_fdb = .false.
    aero_dir_fdb = .false.
    addsmoke_flag = 1
    wetdep_ls_opt = 1    
    do_plumerise = @[RRFS_SMOKE]
    plumerisefire_frq = 60
    dust_alpha = 0.01
    dust_gamma = 1.3
    wetdep_ls_alpha = 0.5
    smoke_dir_fdb_coef = 0.33, 0.67, 0.02, 0.13, 0.85, 0.05, 0.95
    cal_pre = .false.
    cdmbgwd = @[CDMBWD]
    cnvcld = .false.
    cnvgwd = .false.
!    cplchm = @[CPLCHM]
    cplflx = .false.
!    cplwav = @[CPLWAV]
!    cplwav2atm = @[CPLWAV2ATM]
!    damp_LW_fluxadj = @[DAMP_LW_FLUXADJ]
    debug = .false.
    do_deep = @[DO_DEEP]
    do_gsl_drag_ls_bl    = @[DO_GSL_DRAG_LS_BL]
    do_gsl_drag_ss       = @[DO_GSL_DRAG_SS]
    do_gsl_drag_tofd     = @[DO_GSL_DRAG_TOFD]
    do_mynnedmf = @[DO_MYNNEDMF]
    do_mynnsfclay = @[DO_MYNNSFCLAY]
!    do_rrtmgp = @[DO_RRTMGP]
    do_shum = @[DO_SHUM]
    do_skeb = @[DO_SKEB]
    do_sppt = @[DO_SPPT]
!    do_tofd = @[DO_TOFD]
!    do_ugwp = @[DO_UGWP]
!    do_ugwp_v0 = @[DO_UGWP_V0]
!    do_ugwp_v0_orog_only = @[DO_UGWP_V0_OROG_ONLY]
!    doGP_cldoptics_LUT = @[DOGP_CLDOPTICS_LUT]
!    doGP_lwscat = @[DOGP_LWSCAT]
    dspheat = .true.
    dt_inner = 20
    effr_in = .true.
    fhcyc = @[FHCYC]
    fhlwr = 1200.0
    fhswr = 1200.0
    fhzero = @[FHZERO]
!    fscav_aero = @[FSCAV_AERO]
    gwd_opt = @[GWD_OPT]
    h2o_phys = .true.
    hybedmf = @[HYBEDMF]
    iaer = @[IAER]
    ialb = @[IALB]
    iau_delthrs = 6
    iau_inc_files = ''
    iaufhrs = 30
    icliq_sw = @[ICLIQ_SW]
    icloud_bl = 1
    ico2 = 2
    iems = @[IEMS]
    imfdeepcnv = @[IMFDEEPCNV]
    imfshalcnv = @[IMFSHALCNV]
    imp_physics = @[IMP_PHYSICS]
    ! Yes, really, I mean it. Stop changing the iopt settings too.
    ! They need to match the RRFS_dev1 parallel.
    iopt_alb = 2
    iopt_btr = 1
    iopt_crs = 1
    iopt_dveg = 2
    iopt_frz = 1
    iopt_inf = 1
    iopt_rad = 1
    iopt_run = 1
    iopt_sfc = 1
    iopt_snf = 4
    iopt_stc = 1
    iopt_tbot = 2
    sedi_semi   = @[SEDI_SEMI]
    decfl       = @[DECFL]
    iovr = @[IOVR]
    isol = 2
    isot = 1
    isubc_lw = 2
    isubc_sw = 2
    ivegsrc = 1
    kice = @[KICE]
    ldiag3d = @[LDIAG3D]
!    ldiag_ugwp = @[LDIAG_UGWP]
!    lfnc_k = @[LFNC_K]
!    lfnc_p0 = @[LFNC_P0]
    lheatstrg = @[LHEATSTRG]
    lkm = @[LKM]
    lndp_type = @[LNDP_TYPE]
    lradar = @[LRADAR]
    lrefres = .true.
!    lseaspray = @[LSEASPRAY]
    lsm = @[LSM]
    lsoil = 9
    lsoil_lsm = @[LSOIL_LSM]
    ltaerosol = @[LTAEROSOL]
    lwhtr = .true.
    n_var_lndp = @[N_VAR_LNDP]
    nsfullradar_diag = 3600
    nst_anl = .false.
    nstf_name = 2, 0, 0, 0, 0
    oz_phys = .false.
    oz_phys_2015 = .true.
    pdfcld = .false.
    pre_rad = .false.
    print_diff_pgr = @[PRINT_DIFF_PGR]
    prslrd0 = 0.0
!    qdiag3d = @[QDIAG3D]
    random_clds = .false.
!    ras = @[RAS]
    redrag = .true.
    satmedmf = @[SATMEDMF]
    shal_cnv = @[SHAL_CNV]
    swhtr = .true.
    thsfc_loc = .false.
    trans_trac = .true.
    ttendlim = -999
!    use_LW_jacobian = @[USE_LW_JACOBIAN]
    use_ufo = .true.
/

&interpolator_nml
    interp_method = 'conserve_great_circle'
/

&nam_sfcperts
    iseed_lndp = 2010
    lndp_lscale = 500000
    lndp_prt_list = 0.2, 0.1
    lndp_tau = 21600
    lndp_type = 0
    lndp_var_list = 'smc', 'vgf'
/

&nam_stochy
    iseed_shum = 2
    iseed_skeb = 3
    iseed_sppt = 1
    new_lscale = .true.
    shum = -999.0
    shum_lscale = 150000
    shum_tau = 21600
    shumint = 3600
    skeb = -999.0
    skeb_lscale = 150000
    skeb_tau = 21600
    skeb_vdof = 10
    skebint = 3600
    skebnorm = 1
    sppt = -999.0
    sppt_logit = .true.
    sppt_lscale = 150000
    sppt_sfclimit = .false.
    sppt_tau = 21600
    spptint = 3600
    use_zmtnblck = .false.
/

&namsfc
    fabsl = 99999
    faisl = 99999
    faiss = 99999
    fnabsc = 'C775.maximum_snow_albedo.tileX.nc' ! should not exist
    fnacna = ''
    fnaisc = 'CFSR.SEAICE.1982.2012.monthly.clim.grb'
    fnalbc = 'C775.snowfree_albedo.tileX.nc' ! should not exist
    fnalbc2 = 'C775.facsf.tileX.nc' ! should not exist
    fnglac = 'global_glacier.2x2.grb'
    fnmskh = 'seaice_newland.grb'
    fnmxic = 'global_maxice.2x2.grb'
    fnslpc = 'C775.slope_type.tileX.nc' ! should not exist
    fnsmcc = 'global_soilmgldas.t126.384.190.grb'
    fnsnoa = ''
    fnsnoc = 'global_snoclim.1.875.grb'
    fnsotc = 'C775.soil_type.tileX.nc' ! should not exist
    fntg3c = 'C775.substrate_temperature.tileX.nc' ! should not exist
    fntsfa = ''
    fntsfc = 'RTGSST.1982.2012.monthly.clim.grb'
    fnvegc = 'C775.vegetation_greenness.tileX.nc' ! should not exist
    fnvetc = 'C775.vegetation_type.tileX.nc' ! should not exist 
    fnvmnc = 'C775.vegetation_greenness.tileX.nc' ! should not exist 
    fnvmxc = 'C775.vegetation_greenness.tileX.nc' ! should not exist 
    fnzorc = 'igbp'
    fsicl = 99999
    fsics = 99999
    fslpl = 99999
    fsmcl = 99999, 99999, 99999
    fsnol = 99999
    fsnos = 99999
    fsotl = 99999
    ftsfl = 99999
    ftsfs = 90
    fvetl = 99999
    fvmnl = 99999
    fvmxl = 99999
    ldebug = .true.
/

&surf_map_nml
    cd2 = -1
    cd4 = 0.12
    max_slope = 0.4
    n_del2_strong = 0
    n_del2_weak = 2
    n_del4 = 1
    peak_fac = 1.0
    zero_ocean = .false.
/
