&amip_interp_nml
       interp_oi_sst = .true.
       use_ncep_sst = .true.
       use_ncep_ice = .false.
       no_anom_sst = .false.
       data_set = 'reynolds_oi',
       date_out_of_range = 'climo',
/

&atmos_model_nml
       nxblocks = 1
       nyblocks = 1
       surface_debug = .false.
       dycore_only = .false.
/

&diag_manager_nml
       prepend_date = .true.
       long_date = .true.
/

&fms_io_nml
       checksum_required   = .false.
       max_files_r = 100,
       max_files_w = 100,
/

&fms_nml
       clock_grain = 'LOOP',
       domains_stack_size = 115200,
       print_memory_usage = .false.
/

&fv_grid_nml
       grid_file = 'INPUT/grid_spec.nc'
/

&fv_core_nml
       layout   = @[INPES],@[JNPES]
       io_layout = 1,1
       npx      = 97
       npy      = 97
       ntiles   = 6,
       npz    = 63
       grid_type = -1
       make_nh = @[MAKE_NH]
       fv_debug = .F.
       range_warn = .F.
       reset_eta = .F.
       n_sponge = 8
       tau = 5.
       rf_cutoff = 8.e2
       d2_bg_k1 = 0.16
       d2_bg_k2 = 0.02
       kord_tm = -11
       kord_mt =  10
       kord_wz =  10
       kord_tr =  11
       hydrostatic = .F.
       phys_hydrostatic = .F.
       use_hydro_pressure = .F.
       beta = 0.
       a_imp = 1.
       p_fac = 0.1
       k_split  = 2
       n_split  = 6
       nwat = 2
       na_init = @[NA_INIT]
       d_ext = 0.0
       dnats = 0
       fv_sg_adj = 600
       d2_bg = 0.
       nord =  2
       dddmp = 0.2
       d4_bg = 0.15
       vtdm4 = 0.06
       ke_bg = 0.
       do_vort_damp = .true.
       external_ic = @[EXTERNAL_IC]
       gfs_phil = .false.
       nggps_ic = @[NGGPS_IC]
       mountain = @[MOUNTAIN]
       ncep_ic = .F.
       d_con = 1.
       hord_mt =  6
       hord_vt = -5
       hord_tm = -5
       hord_dp = -5
       hord_tr = -8
       adjust_dry_mass = .F.
       consv_te = 1.
       consv_am = .F.
       fill = .T.
       dwind_2d = .F.
       print_freq = 6
       warm_start = @[WARM_START]
       no_dycore = .false.
       z_tracer = .T.
/

#&coupler_nml
#       months = 0
#       days  = @[DAYS]
#       hours = 0 
#       dt_atmos = 225
#       dt_ocean = 225
#       current_date =  2016,10,03,00,0,0
#       calendar = 'julian'
#       memuse_verbose = .false.
#       atmos_nthreads = @[THRD]
#       use_hyper_thread = .false.
#       ncores_per_node = 24
#/

&external_ic_nml
       filtered_terrain = .true.
       ncep_plevels = .false.
       levp = 64
       gfs_dwinds = .true.
       checker_tr = .F.
       nt_checker = 0
/

&gfs_physics_nml
       debug = .false.
       ntoz = 3
       ntcw = 2
       fhswr = 3600.
       fhlwr = 3600.
       ozcalc = .true.
       nocnv = .false.
       fhzero = 6.
       prslrd0 = 0.
       fhcyc = 24.
       use_ufo = .F.
       nst_anl = .F.
       ncols = 13824
       iems = 1
       isol = 2
       iaer = 111
       ico2 = 2
       cdmbgwd = 3.5,0.25
/

&nggps_diag_nml
       fdiag = @[FDIAG]
/

&interpolator_nml
       interp_method = 'conserve_great_circle'
/

&namsfc
       FNGLAC = "global_glacier.2x2.grb"
       FNMXIC = "global_maxice.2x2.grb"
       FNTSFC = "cfs_oi2sst1x1monclim19822001.grb"
       FNSNOC = "global_snoclim.1.875.grb"
       FNZORC = "global_zorclim.1x1.grb"
       FNALBC = "global_albedo4.1x1.grb"
       FNAISC = "cfs_ice1x1monclim19822001.grb"
       FNTG3C = "global_tg3clim.2.6x1.5.grb"
       FNVEGC = "global_vegfrac.0.144.decpercent.grb"
       FNVETC = "global_vegtype.1x1.grb"
       FNSOTC = "global_soiltype.1x1.grb"
       FNSMCC = "global_soilmcpc.1x1.grb"
       FNMSKH = "seaice_newland.grb"
       FNTSFA = " "
       FNACNA = " "
       FNSNOA = " "
       FNVMNC = "global_shdmin.0.144x0.144.grb"
       FNVMXC = "global_shdmax.0.144x0.144.grb"
       FNSLPC = "global_slope.1x1.grb"
       FNABSC = "global_snoalb.1x1.grb"
       LDEBUG=.false.,
       FSMCL(2) = 99999
       FSMCL(3) = 99999
       FSMCL(4) = 99999
       FTSFS = 90
       FAISS = 99999
       FSNOL = 99999
       FSICL = 99999
       FTSFL=99999,
       FAISL=99999,
       FVETL=99999,
       FSOTL=99999,
       FvmnL=99999,
       FvmxL=99999,
       FSLPL=99999,
       FABSL=99999,
       FSNOS=99999,
       FSICS=99999,
/
