# added by FRE: sphum must be present in atmos
# specific humidity for moist runs
 "TRACER", "atmos_mod", "sphum"
           "longname",     "specific humidity"
           "units",        "kg/kg"
       "profile_type", "fixed", "surface_value=3.e-6" /
# prognostic cloud water mixing ratio
 "TRACER", "atmos_mod", "liq_wat"
           "longname",     "cloud water mixing ratio"
           "units",        "kg/kg"
       "profile_type", "fixed", "surface_value=1.e30" /
# prognostic ozone mixing ratio tracer
 "TRACER", "atmos_mod", "o3mr"
           "longname",     "ozone mixing ratio"
           "units",        "kg/kg"
       "profile_type", "fixed", "surface_value=1.e30" /
