&atmos_model_nml
  blocksize = 32
  chksum_debug = .false.
  dycore_only = .true.
  ccpp_suite = FV3_GFS_v17_p8_ugwpv1
  
/

&diag_manager_nml
  prepend_date = .false.
  max_output_fields = 300
  
/

&fms_nml
  clock_grain = 'ROUTINE'
  domains_stack_size = 16000000
  print_memory_usage = .false.
  
/

&fms2_io_nml
  netcdf_default_format = "netcdf4"
/

&fv_core_nml
  layout = 4,8
  io_layout = 1,1
  npx = 193
  npy = 193
  ntiles = 6
  npz = 127
  dz_min =  6
  psm_bc = 1
  grid_type = 0
  make_nh = .true.
  fv_debug = .false.
  range_warn = .true.
  reset_eta = .false.
  n_sponge = 42
  nudge_qv = .true.
  nudge_dz = .false.
  tau = 0.
  rf_cutoff = 10.
  d2_bg_k1 = 0.20
  d2_bg_k2 = 0.04
  kord_tm = -9
  kord_mt = 9
  kord_wz = 9
  kord_tr = 9
  hydrostatic = .false.
  phys_hydrostatic = .false.
  use_hydro_pressure = .false.
  beta = 0.
  a_imp = 1.
  p_fac = 0.1
  k_split = 2
  n_split = 5
  nwat = 6
  na_init = 0
  d_ext = 0.
  dnats = 0
  fv_sg_adj = 450
  d2_bg = 0.
  nord = 2
  dddmp = 0.1
  d4_bg = 0.12
  vtdm4 = 0.02
  delt_max = 0.002
  ke_bg = 0.
  do_vort_damp = .true.
  external_ic = .false.
  external_eta = .false.
  gfs_phil = .false.
  nggps_ic = .false.
  fv_eta_file='global_hyblev.l128.txt'
  npz_type='input'
  mountain = .false.
  ncep_ic = .false.
  d_con = 1.
  hord_mt = 5
  hord_vt = 5
  hord_tm = 5
  hord_dp = -5
  hord_tr = 8
  adjust_dry_mass = .false.
  dry_mass=98320.0
  consv_te = 1.
  do_sat_adj = .false.
  fast_tau_w_sec = 0.2
  consv_am = .false.
  fill = .true.
  dwind_2d = .false.
  print_freq = 6
  warm_start = .false.
  no_dycore = .false.
  z_tracer = .true.
  agrid_vel_rst = .true.
  read_increment = .false.
  res_latlon_dynamics = ""
  
/

&external_ic_nml
  filtered_terrain = .true.
  levp = 128
  gfs_dwinds = .true.
  checker_tr = .false.
  nt_checker = 0
  
/

&gfs_physics_nml
  fhzero       = 6
  h2o_phys     = .true.
  ldiag3d      = .false.
  qdiag3d      = .false.
  print_diff_pgr = .false.
  fhcyc        = 0
  use_ufo      = .true.
  pre_rad      = .false.
  imp_physics  = 8
  iovr         = 3
  ltaerosol    = .false.
  lradar       = .true.
  ttendlim     = -999
  dt_inner     = 450
  sedi_semi    = .true.
  decfl        = 10
  oz_phys      = .false.
  oz_phys_2015 = .true.
  lsoil_lsm    = 4
  do_mynnedmf  = .false.
  do_mynnsfclay = .false.
  icloud_bl    = 1
  bl_mynn_edmf = 1
  bl_mynn_tkeadvect = .true.
  bl_mynn_edmf_mom = 1
  do_ugwp      = .false.
  do_tofd      = .false.
  gwd_opt      = 2
  do_ugwp_v0   = .false.
  do_ugwp_v1   = .true.
  do_ugwp_v0_orog_only = .false.
  do_ugwp_v0_nst_only  = .false.
  do_gsl_drag_ls_bl    = .true.
  do_gsl_drag_ss       = .true.
  do_gsl_drag_tofd     = .true.
  do_ugwp_v1_orog_only = .false.
  min_lakeice  = 0.15
  min_seaice   = 0.15
  use_cice_alb = .false.
  pdfcld       = .false.
  fhswr        = 3600.
  fhlwr        = 3600.
  ialb         = 2
  iems         = 2
  iaer         = 1011
  icliq_sw     = 2
  ico2         = 2
  isubc_sw     = 2
  isubc_lw     = 2
  isol         = 2
  lwhtr        = .true.
  swhtr        = .true.
  cnvgwd       = .true.
  shal_cnv     = .true.
  cal_pre      = .false.
  redrag       = .true.
  dspheat      = .true.
  hybedmf      = .false.
  satmedmf     = .true.
  isatmedmf    = 1
  lheatstrg    = .false.
  lseaspray    = .true.
  random_clds  = .false.
  trans_trac   = .true.
  cnvcld       = .true.
  imfshalcnv   = 2
  imfdeepcnv   = 2
  progsigma    = .true.
  betascu      = 8.0
  betamcu      = 1.0
  betadcu      = 2.0
  ras          = .false.
  cdmbgwd      = 10.0,3.5,1.0,1.0
  prslrd0      = 0.
  ivegsrc      = 1
  isot         = 1
  lsoil        = 4
  lsm          = 2
  iopt_dveg    = 4
  iopt_crs     = 2
  iopt_btr     = 1
  iopt_run     = 1
  iopt_sfc     = 3
  iopt_frz     = 1
  iopt_inf     = 1
  iopt_rad     = 3
  iopt_alb     = 1
  iopt_snf     = 4
  iopt_tbot    = 2
  iopt_stc     = 3
  iopt_trs     = 2
  iopt_diag    = 1
  debug        = .false.
  nstf_name    = 2,0,0,0,0
  nst_anl      = .true.
  psautco      = 0.0008,0.0005
  prautco      = 0.00015,0.00015
  lgfdlmprad   = .false.
  effr_in      = .true.
  ldiag_ugwp   = .false.
  do_RRTMGP          = .false.
  active_gases       = 'h2o_co2_o3_n2o_ch4_o2'
  ngases             = 6
  lw_file_gas        = 'rrtmgp-data-lw-g128-210809.nc'
  lw_file_clouds     = 'rrtmgp-cloud-optics-coeffs-lw.nc'
  sw_file_gas        = 'rrtmgp-data-sw-g112-210809.nc'
  sw_file_clouds     = 'rrtmgp-cloud-optics-coeffs-sw.nc'
  rrtmgp_nGptsSW     = 112
  rrtmgp_nGptsLW     = 128
  rrtmgp_nBandsLW    = 16
  rrtmgp_nBandsSW    = 14
  doGP_cldoptics_LUT = .false.
  doGP_lwscat        = .false.
  do_sppt      = .false.
  do_shum      = .false.
  do_skeb      = .false.
  frac_grid    = .true.
  cplchm       = .false.
  cplflx       = .false.
  cplice       = .false.
  cplwav       = .false.
  cplwav2atm   = .false.
  do_ca      = .true.
  ca_global  = .false.
  ca_sgs     = .true.
  nca        = 1
  ncells     = 5
  nlives     = 12
  nseed      = 1
  nfracseed  = 0.5
  nthresh    = 18
  ca_trigger = .true.
  nspinup    = 1
  iseed_ca   = 485671814
/
&cires_ugwp_nml
  knob_ugwp_solver  = 2
  knob_ugwp_source  = 1,1,0,0
  knob_ugwp_wvspec  = 1,25,25,25
  knob_ugwp_azdir   = 2,4,4,4
  knob_ugwp_stoch   = 0,0,0,0
  knob_ugwp_effac   = 1,1,1,1
  knob_ugwp_doaxyz  = 1
  knob_ugwp_doheat  = 1
  knob_ugwp_dokdis  = 2
  knob_ugwp_ndx4lh  = 4
  knob_ugwp_version = 1
  knob_ugwp_palaunch = 275.0e2
  knob_ugwp_nslope   = 1
  knob_ugwp_lzmax    = 15.750e3
  knob_ugwp_lzmin    = 0.75e3
  knob_ugwp_lzstar   = 2.0e3
  knob_ugwp_taumin   = 0.25e-3
  knob_ugwp_tauamp   = 1.5e-3
  knob_ugwp_lhmet    = 200.0e3
  knob_ugwp_orosolv  = 'pss-1986'
/

&gfdl_cloud_microphysics_nml
  sedi_transport = .true.
  do_sedi_heat = .false.
  rad_snow = .true.
  rad_graupel = .true.
  rad_rain = .true.
  const_vi = .false.
  const_vs = .false.
  const_vg = .false.
  const_vr = .false.
  vi_max = 1.
  vs_max = 2.
  vg_max = 12.
  vr_max = 12.
  qi_lim = 1.
  prog_ccn = .false.
  do_qa = .true.
  fast_sat_adj = .true.
  tau_l2v = 225.
  tau_v2l = 150.
  tau_g2v = 900.
  rthresh = 10.e-6  ! This is a key parameter for cloud water
  dw_land  = 0.16
  dw_ocean = 0.10
  ql_gen = 1.0e-3
  ql_mlt = 1.0e-3
  qi0_crt = 8.0E-5
  qs0_crt = 1.0e-3
  tau_i2s = 1000.
  c_psaci = 0.05
  c_pgacs = 0.01
  rh_inc = 0.30
  rh_inr = 0.30
  rh_ins = 0.30
  ccn_l = 300.
  ccn_o = 100.
  c_paut = 0.5
  c_cracw = 0.8
  use_ppm = .false.
  use_ccn = .true.
  mono_prof = .true.
  z_slope_liq  = .true.
  z_slope_ice  = .true.
  de_ice = .false.
  fix_negative = .true.
  icloud_f = 1
  mp_time = 150.
  reiflag = 2

  
/

&interpolator_nml
  interp_method = 'conserve_great_circle'
  
/

&namsfc
  FNGLAC   = @[FNGLAC]
  FNMXIC   = @[FNMXIC]
  FNTSFC   = @[FNTSFC]
  FNSNOC   = @[FNSNOC]
  FNZORC   = @[FNZORC]
  FNALBC   = @[FNALBC]
  FNALBC2  = @[FNALBC2]
  FNAISC   = @[FNAISC]
  FNTG3C   = @[FNTG3C]
  FNVEGC   = @[FNVEGC]
  FNVETC   = @[FNVETC]
  FNSOTC   = @[FNSOTC]
  FNSOCC   = @[FNSOCC]
  FNSMCC   = @[FNSMCC]
  FNMSKH   = @[FNMSKH]
  FNTSFA   = ''
  FNACNA   = ''
  FNSNOA   = ''
  FNVMNC   = @[FNVMNC]
  FNVMXC   = @[FNVMXC]
  FNSLPC   = @[FNSLPC]
  FNABSC   = @[FNABSC]
  LDEBUG = .false.
  FSMCL(2) = 99999
  FSMCL(3) = 99999
  FSMCL(4) = 99999
  LANDICE  = .false.
  FTSFS = 90
  FAISL = 99999
  FAISS = 99999
  FSNOL = 99999
  FSNOS = 99999
  FSICL = 0
  FSICS = 0
  FTSFL = 99999
  FVETL = 99999
  FSOTL = 99999
  FvmnL = 99999
  FvmxL = 99999
  FSLPL = 99999
  FABSL = 99999
  
/

&fv_grid_nml
  grid_file = 'INPUT/grid_spec.nc'
  
/

&nam_stochy
/
&nam_sfcperts
/
 &test_case_nml ! cold start
     test_case = 13
/

